<?xml version="1.0" encoding="UTF-8"?>

<!-- generated on Fri May 22 16:49:50 2020 by Eclipse SUMO polyconvert Version 1.6.0
<configuration xmlns:xsi="http://www.w3.org/2001/XMLSchema-instance" xsi:noNamespaceSchemaLocation="http://sumo.dlr.de/xsd/polyconvertConfiguration.xsd">

    <input>
        <net-file value="osm.net.xml"/>
        <osm-files value="osm_bbox.osm.xml"/>
        <osm.keep-full-type value="true"/>
        <type-file value="/usr/local/opt/sumo/share/sumo/data/typemap/osmPolyconvert.typ.xml"/>
    </input>

    <output>
        <output-file value="osm.poly.xml"/>
    </output>

    <processing>
        <poi-layer-offset value="5"/>
    </processing>

    <report>
        <verbose value="true"/>
    </report>

</configuration>
-->

<additional xmlns:xsi="http://www.w3.org/2001/XMLSchema-instance" xsi:noNamespaceSchemaLocation="http://sumo.dlr.de/xsd/additional_file.xsd">
    <location netOffset="-328022.79,-4688026.46" convBoundary="-1852.98,0.00,4218.89,7458.58" origBoundary="-71.110576,42.326050,-71.036555,42.393050" projParameter="+proj=utm +zone=19 +ellps=WGS84 +datum=WGS84 +units=m +no_defs"/>

    <poly id="103680109" type="building.commercial" color="255,230,230" fill="1" layer="-1.00" shape="2452.341897,3262.483400 2464.283814,3257.416611 2465.548979,3255.552703 2446.801313,3230.040819 2436.197801,3234.908562 2452.341897,3262.483400"/>
    <poly id="108235738" type="building.yes" color="255,230,230" fill="1" layer="-1.00" shape="2315.300898,3440.842298 2300.431003,3450.546861 2302.612683,3453.860547 2305.675751,3458.519496 2308.893250,3463.430251 2317.722792,3476.849177 2319.733820,3479.922566 2325.329110,3488.420035 2331.481238,3497.792876 2334.539560,3495.796598 2336.413422,3498.651100 2348.233161,3490.942682 2346.359302,3488.088177 2349.596129,3485.976472 2333.014156,3460.734629 2329.769355,3462.857645 2317.482573,3444.155988 2315.300898,3440.842298"/>
    <poly id="117744693" type="amenity.college" color="237,199,199" fill="1" layer="-1.00" shape="1843.205090,2941.491506 1840.815374,2917.761342 1837.543205,2918.085293 1837.108512,2913.762642 1832.389694,2914.243968 1831.986723,2910.209427 1826.840147,2910.723373 1822.616387,2868.838284 1826.209263,2868.484312 1837.834092,2867.312959 1839.419238,2883.029561 1842.543436,2882.720318 1842.087146,2878.187087 1852.297982,2877.161224 1855.988741,2913.737197 1858.981143,2913.431164 1859.208877,2915.681123 1860.099296,2924.514799 1861.628906,2939.643880 1843.205090,2941.491506"/>
    <poly id="117744693#1" type="building.yes" color="255,230,230" fill="1" layer="-1.00" shape="1843.205090,2941.491506 1840.815374,2917.761342 1837.543205,2918.085293 1837.108512,2913.762642 1832.389694,2914.243968 1831.986723,2910.209427 1826.840147,2910.723373 1822.616387,2868.838284 1826.209263,2868.484312 1837.834092,2867.312959 1839.419238,2883.029561 1842.543436,2882.720318 1842.087146,2878.187087 1852.297982,2877.161224 1855.988741,2913.737197 1858.981143,2913.431164 1859.208877,2915.681123 1860.099296,2924.514799 1861.628906,2939.643880 1843.205090,2941.491506"/>
    <poly id="117744695" type="amenity.college" color="237,199,199" fill="1" layer="-1.00" shape="1799.950647,2944.031546 1770.177347,2945.488582 1766.339844,2901.538618 1787.462480,2899.847411 1793.335221,2899.371340 1795.175994,2920.514909 1797.384170,2920.494570 1797.634214,2921.966230 1799.950647,2944.031546"/>
    <poly id="117744695#1" type="building.yes" color="255,230,230" fill="1" layer="-1.00" shape="1799.950647,2944.031546 1770.177347,2945.488582 1766.339844,2901.538618 1787.462480,2899.847411 1793.335221,2899.371340 1795.175994,2920.514909 1797.384170,2920.494570 1797.634214,2921.966230 1799.950647,2944.031546"/>
    <poly id="117744697" type="amenity.theatre" color="237,199,199" fill="1" layer="-1.00" shape="2134.806349,3106.617842 2108.006990,3113.434507 2081.710835,3116.194739 2042.303290,3120.317718 2043.159749,3128.441140 2066.575470,3164.216219 2068.332616,3163.951359 2071.763889,3168.490175 2075.206380,3164.662295 2081.582035,3163.185390 2083.625690,3165.557948 2088.971980,3163.772705 2117.730140,3154.141846 2119.806498,3153.447044 2119.418398,3152.056501 2114.806408,3135.535550 2114.029666,3132.732256 2111.330498,3123.042475 2115.520451,3122.507496 2114.995411,3119.209221 2124.971721,3117.022795 2139.841883,3113.762138 2134.806349,3106.617842"/>
    <poly id="117744697#1" type="building.yes" color="255,230,230" fill="1" layer="-1.00" shape="2134.806349,3106.617842 2108.006990,3113.434507 2081.710835,3116.194739 2042.303290,3120.317718 2043.159749,3128.441140 2066.575470,3164.216219 2068.332616,3163.951359 2071.763889,3168.490175 2075.206380,3164.662295 2081.582035,3163.185390 2083.625690,3165.557948 2088.971980,3163.772705 2117.730140,3154.141846 2119.806498,3153.447044 2119.418398,3152.056501 2114.806408,3135.535550 2114.029666,3132.732256 2111.330498,3123.042475 2115.520451,3122.507496 2114.995411,3119.209221 2124.971721,3117.022795 2139.841883,3113.762138 2134.806349,3106.617842"/>
    <poly id="117744698" type="building.yes" color="255,230,230" fill="1" layer="-1.00" shape="1851.210643,2815.111591 1859.097638,2814.431088 1867.959121,2813.493591 1870.135801,2810.818560 1895.026898,2808.525044 1897.610551,2810.728888 1903.808786,2810.078345 1908.525607,2833.263118 1898.601739,2835.248564 1890.926738,2836.512746 1887.405402,2837.098273 1870.348146,2839.912587 1842.369373,2844.014509 1842.771162,2852.748948 1843.372019,2865.945093 1839.558106,2866.359981 1827.820931,2867.656280 1823.694841,2868.112095 1823.436203,2864.251820 1823.126808,2859.659466 1813.679655,2860.233489 1803.924395,2859.659489 1793.976192,2858.267993 1784.776437,2856.136115 1778.062357,2877.265415 1775.535693,2885.204398 1768.017019,2883.065012 1750.606202,2878.110653 1747.944811,2886.608464 1742.552513,2903.794664 1738.705210,2916.054546 1728.329041,2915.362423 1728.061023,2914.168972 1718.816472,2919.004754 1715.015955,2920.986010 1714.254964,2919.515667 1719.401973,2903.090940 1725.909801,2882.299912 1728.624773,2873.634127 1731.416177,2864.722047 1733.947797,2856.649595 1746.620039,2816.187018 1749.725776,2814.778214 1753.585729,2802.018050 1754.304357,2799.711752 1766.652038,2803.522577 1768.042504,2806.477584 1774.452968,2808.455029 1777.421799,2806.838460 1799.916591,2813.780381 1806.972469,2815.186628 1814.945185,2815.659515 1822.249541,2815.082016 1840.280351,2813.666113 1841.182979,2814.521934 1849.400659,2813.544503 1851.210643,2815.111591"/>
    <poly id="117744699" type="building.yes" color="255,230,230" fill="1" layer="-1.00" shape="2041.822449,3103.563205 2042.303290,3120.317718 2081.710835,3116.194739 2108.006990,3113.434507 2134.806349,3106.617842 2124.767309,3093.650665 2084.204092,3098.379198 2041.822449,3103.563205"/>
    <poly id="117744700" type="building.yes" color="255,230,230" fill="1" layer="-1.00" shape="1863.714894,2939.004325 1862.014623,2923.634952 1875.457332,2921.986168 1874.587040,2913.640877 1860.474608,2914.861503 1860.200153,2912.723786 1858.281265,2897.515277 1874.376167,2895.802053 1870.331189,2892.811523 1870.017889,2889.074795 1873.259621,2886.140561 1856.936916,2887.637105 1855.490849,2873.572632 1887.203897,2868.835611 1890.442055,2883.734306 1882.287649,2884.599048 1882.351852,2887.241859 1886.544220,2887.140013 1887.170965,2893.602384 1889.786740,2920.538085 1896.856447,2920.144130 1897.191494,2923.080353 1898.540726,2934.858359 1882.861780,2936.728089 1863.714894,2939.004325"/>
    <poly id="117744701" type="building.yes" color="255,230,230" fill="1" layer="-1.00" shape="2198.688397,3580.532135 2194.644763,3568.741666 2200.554062,3566.398408 2194.201727,3550.475167 2185.439440,3553.765381 2182.779833,3549.774453 2177.965100,3542.547008 2201.432202,3534.311381 2217.975084,3573.897904 2198.688397,3580.532135"/>
    <poly id="117744703" type="building.yes" color="255,230,230" fill="1" layer="-1.00" shape="2146.457867,3122.190283 2139.841883,3113.762138 2124.971721,3117.022795 2125.386646,3119.179332 2115.520451,3122.507496 2111.330498,3123.042475 2114.029666,3132.732256 2146.457867,3122.190283"/>
    <poly id="117744709" type="building.yes" color="255,230,230" fill="1" layer="-1.00" shape="2169.497535,3570.896033 2181.780123,3557.820691 2189.376441,3561.158560 2198.281107,3582.086413 2169.497535,3570.896033"/>
    <poly id="117744712" type="amenity.library" color="237,199,199" fill="1" layer="-1.00" shape="2138.814956,3554.463104 2137.100474,3556.482422 2118.642531,3547.008338 2125.855604,3532.511506 2127.508638,3533.393594 2127.279465,3534.476901 2132.631488,3536.335877 2134.305983,3532.328696 2129.988302,3527.589150 2129.929568,3525.168422 2123.203626,3521.365064 2127.434110,3513.340422 2127.126068,3509.814665 2131.396285,3503.766783 2154.280202,3530.933018 2138.814956,3554.463104"/>
    <poly id="117744712#1" type="building.yes" color="255,230,230" fill="1" layer="-1.00" shape="2138.814956,3554.463104 2137.100474,3556.482422 2118.642531,3547.008338 2125.855604,3532.511506 2127.508638,3533.393594 2127.279465,3534.476901 2132.631488,3536.335877 2134.305983,3532.328696 2129.988302,3527.589150 2129.929568,3525.168422 2123.203626,3521.365064 2127.434110,3513.340422 2127.126068,3509.814665 2131.396285,3503.766783 2154.280202,3530.933018 2138.814956,3554.463104"/>
    <poly id="117744714" type="amenity.theatre" color="237,199,199" fill="1" layer="-1.00" shape="2124.767309,3093.650665 2084.204092,3098.379198 2080.410918,3096.926845 2070.271820,3097.839543 2068.970810,3080.904942 2105.344413,3076.722409 2110.085912,3074.462986 2112.548090,3073.025511 2124.767309,3093.650665"/>
    <poly id="117744714#1" type="building.yes" color="255,230,230" fill="1" layer="-1.00" shape="2124.767309,3093.650665 2084.204092,3098.379198 2080.410918,3096.926845 2070.271820,3097.839543 2068.970810,3080.904942 2105.344413,3076.722409 2110.085912,3074.462986 2112.548090,3073.025511 2124.767309,3093.650665"/>
    <poly id="117744716" type="amenity.college" color="237,199,199" fill="1" layer="-1.00" shape="1931.166904,2931.421527 1898.540726,2934.858359 1897.191494,2923.080353 1903.301890,2921.531964 1903.210991,2917.789833 1900.135398,2918.742295 1889.419516,2868.781788 1916.696527,2863.274913 1918.943675,2874.020028 1910.826476,2876.417123 1910.555812,2874.434864 1907.236505,2874.515488 1905.543484,2877.423198 1906.802263,2883.781331 1908.835265,2885.709672 1912.144048,2885.195982 1912.079857,2882.553172 1920.657731,2880.800427 1922.505554,2893.088532 1915.031381,2894.814468 1914.527815,2892.404545 1910.570907,2893.378408 1909.970787,2895.815139 1910.350811,2902.639049 1912.820900,2903.901237 1916.332764,2902.927074 1916.284756,2900.950518 1923.978464,2899.441467 1926.472125,2910.836134 1918.558327,2912.783849 1918.076340,2911.262266 1914.553421,2911.781155 1913.508535,2914.228688 1914.325377,2920.375341 1916.581021,2922.309386 1920.548432,2921.768592 1920.495031,2919.569951 1928.855870,2918.044701 1931.166904,2931.421527"/>
    <poly id="117744716#1" type="building.yes" color="255,230,230" fill="1" layer="-1.00" shape="1931.166904,2931.421527 1898.540726,2934.858359 1897.191494,2923.080353 1903.301890,2921.531964 1903.210991,2917.789833 1900.135398,2918.742295 1889.419516,2868.781788 1916.696527,2863.274913 1918.943675,2874.020028 1910.826476,2876.417123 1910.555812,2874.434864 1907.236505,2874.515488 1905.543484,2877.423198 1906.802263,2883.781331 1908.835265,2885.709672 1912.144048,2885.195982 1912.079857,2882.553172 1920.657731,2880.800427 1922.505554,2893.088532 1915.031381,2894.814468 1914.527815,2892.404545 1910.570907,2893.378408 1909.970787,2895.815139 1910.350811,2902.639049 1912.820900,2903.901237 1916.332764,2902.927074 1916.284756,2900.950518 1923.978464,2899.441467 1926.472125,2910.836134 1918.558327,2912.783849 1918.076340,2911.262266 1914.553421,2911.781155 1913.508535,2914.228688 1914.325377,2920.375341 1916.581021,2922.309386 1920.548432,2921.768592 1920.495031,2919.569951 1928.855870,2918.044701 1931.166904,2931.421527"/>
    <poly id="117744718" type="building.yes" color="255,230,230" fill="1" layer="-1.00" shape="1803.434669,2877.148691 1803.683353,2879.242589 1793.760531,2880.250412 1794.384114,2887.257286 1816.571742,2884.962521 1815.624293,2875.819132 1803.434669,2877.148691"/>
    <poly id="117853075" type="landuse.construction" color="194,194,130" fill="1" layer="-3.00" shape="2512.816504,3144.823014 2525.545631,3168.525246 2527.387356,3197.290849 2541.689830,3205.988842 2575.764250,3209.664117 2578.298568,3186.003567 2608.117228,3189.193110 2610.196675,3158.988243 2574.346721,3157.211245 2574.149775,3149.071832 2572.297761,3136.561501 2569.756318,3132.000925 2565.904700,3128.127588 2560.774884,3126.262896 2554.356659,3125.984890 2549.751671,3127.418508 2512.816504,3144.823014"/>
    <poly id="135476024" type="amenity.place_of_worship" color="237,199,199" fill="1" layer="-1.00" shape="2425.501589,3182.524816 2453.226153,3156.743120 2475.869117,3185.882820 2450.324820,3208.111745 2448.516775,3209.677700 2425.501589,3182.524816"/>
    <poly id="135476024#1" type="building.yes" color="255,230,230" fill="1" layer="-1.00" shape="2425.501589,3182.524816 2453.226153,3156.743120 2475.869117,3185.882820 2450.324820,3208.111745 2448.516775,3209.677700 2425.501589,3182.524816"/>
    <poly id="161362119" type="leisure.park" color="207,245,201" fill="1" layer="-2.00" shape="-520.739866,2853.457051 -518.706704,2852.351417 -516.675242,2851.845819 -514.116424,2852.005001 -511.721030,2852.890426 -484.372149,2869.083242 -482.869934,2870.512893 -457.980447,2884.899735 -446.531976,2890.962177 -443.709290,2893.470418 -439.951600,2897.133402 -430.325424,2903.829626 -421.487341,2908.978617 -416.704035,2910.783044 -413.323741,2910.499818 -409.073448,2908.061862 -406.766632,2905.016209 -372.767148,2917.867956 -339.137620,2930.762299 -339.341755,2936.867256 -335.416211,2941.326152 -325.111690,2944.783631 -316.497025,2945.882735 -305.675492,2946.571994 -302.159958,2947.096595 -294.312821,2949.492375 -287.815490,2950.621388 -276.173723,2952.157168 -263.199251,2953.260187 -248.406435,2954.240725 -237.254564,2954.288637 -229.081796,2954.176508 -206.871885,2955.819146 -201.746932,2956.104220 -182.637134,2959.034267 -177.265502,2960.302170 -154.290838,2966.570556 -148.148446,2967.008431 -145.948173,2966.665455 -144.580780,2965.631852 -138.686443,2967.042488 -137.249442,2968.840473 -134.825658,2970.214207 -131.021652,2971.076242 -51.242823,2983.226541 -18.170979,2993.924996 217.669630,3072.078600 236.776024,3102.442769 240.466282,3108.752152 252.623353,3123.587060 266.750446,3145.495784 279.142711,3160.180522 290.931348,3168.735732 311.613003,3179.006202 601.523358,3276.124021 804.663034,3344.175094 825.307255,3351.959087 836.518709,3362.229242 870.268717,3374.515115 887.016822,3373.950230 901.289027,3376.945822 974.872315,3401.603057 996.568613,3413.339535 1014.877903,3428.114285 1032.566480,3444.470872 1056.560418,3472.017757 1061.342561,3481.234139 1075.208636,3491.573166 1094.380034,3497.793904 1094.696730,3521.907893 1092.144749,3546.658565 1091.357338,3570.777286 1093.807298,3608.350034 1095.856673,3623.099699 1100.871360,3645.899034 1113.190092,3683.675323 1116.174037,3693.502283 1128.286499,3719.794977 1140.765633,3740.856626 1158.534286,3766.278004 1178.710373,3789.729606 1181.308230,3791.843949 1184.689801,3792.305871 1255.998480,3867.853529 1258.693542,3926.997638 1256.652243,3933.847282 1256.948213,3936.184457 1261.383530,3970.731094 1263.843594,3989.159587 1288.486334,3985.303103 1285.626207,3974.795302 1283.489467,3964.892070 1280.198587,3949.561546 1278.619817,3934.155936 1278.624497,3918.467270 1279.951402,3906.312950 1283.524134,3892.315011 1289.150823,3879.755844 1305.347491,3850.205976 1315.409775,3829.627746 1320.152945,3810.568074 1321.734925,3795.352062 1321.305282,3777.729593 1317.207267,3750.585663 1272.536177,3556.623648 1250.491146,3492.029365 1229.350812,3430.079679 1219.460200,3408.388075 1206.866352,3389.729025 1193.539649,3375.487777 1180.049688,3365.028230 1161.417798,3355.260823 880.884017,3260.924550 753.997622,3217.805355 722.181132,3204.083834 687.018714,3189.355444 615.878316,3164.307943 600.710992,3162.812566 580.550905,3155.650663 569.057178,3148.354409 266.969863,3046.914127 239.409322,3038.112476 224.661049,3036.918722 209.934908,3031.924512 196.955614,3022.887532 189.373350,3029.595694 100.679194,2990.950828 82.522142,2985.863326 64.022017,2981.573171 47.932681,2978.801620 -46.993191,2966.000129 -183.947242,2948.655495 -275.593417,2937.220838 -296.386071,2934.565776 -311.291636,2932.354792 -330.754972,2927.456033 -293.404670,2824.949214 -433.370238,2803.938961 -524.772848,2844.978714 -534.797437,2839.847968 -546.333533,2835.587803 -559.971052,2831.001665 -580.452359,2825.950884 -599.512995,2822.365131 -620.048113,2820.149097 -637.592345,2819.237154 -652.024867,2819.515192 -669.832522,2820.287587 -723.100570,2826.212308 -735.998386,2832.241508 -754.569315,2833.810721 -764.978633,2831.467541 -1094.280732,2868.888214 -1108.779654,2874.813255 -1124.946452,2876.279584 -1136.379121,2874.217806 -1400.601597,2910.022091 -1480.054015,2922.867719 -1493.309887,2929.385006 -1509.035570,2931.352412 -1521.565649,2929.907340 -1595.086836,2942.629546 -1731.893143,2966.389017 -1852.976716,2983.060828 -1844.289558,3003.000728 -1834.412264,3001.166628 -1829.270322,3000.138981 -1815.984562,2997.498073 -1777.565278,2996.055636 -1715.092245,2996.472204 -1686.084137,2993.063748 -1617.827521,2972.793304 -1548.023018,2945.796306 -1517.087433,2940.007466 -1491.259616,2938.623080 -1445.367519,2932.086246 -1402.966875,2924.336178 -1326.555205,2915.833346 -1261.373854,2913.109190 -1231.566528,2915.671735 -1201.654324,2921.476243 -1182.722067,2921.863551 -1105.250830,2933.214620 -1064.358980,2936.770524 -1038.914981,2935.863959 -1011.157562,2931.855901 -949.268448,2915.638292 -927.726657,2908.228555 -892.382032,2893.733686 -854.154971,2871.467906 -842.293775,2865.852950 -834.750088,2864.288991 -750.668501,2854.292107 -734.248907,2855.387059 -702.973221,2856.004538 -642.467053,2865.212488 -620.808222,2866.211872 -602.247102,2866.254349 -591.816268,2865.797260 -581.835108,2864.817940 -570.956844,2862.116542 -553.087251,2854.831816 -546.053626,2853.302962 -539.070023,2852.419786 -531.940983,2852.421915 -526.576550,2853.056408 -522.871779,2853.565129 -520.739866,2853.457051"/>
    <poly id="178198643" type="amenity.place_of_worship" color="237,199,199" fill="1" layer="-1.00" shape="2163.007065,3304.005703 2150.667582,3312.715892 2129.408049,3328.753417 2116.388160,3310.436519 2150.473648,3286.376924 2163.007065,3304.005703"/>
    <poly id="178198643#1" type="building.yes" color="255,230,230" fill="1" layer="-1.00" shape="2163.007065,3304.005703 2150.667582,3312.715892 2129.408049,3328.753417 2116.388160,3310.436519 2150.473648,3286.376924 2163.007065,3304.005703"/>
    <poly id="180102628" type="building.train_station" color="255,230,230" fill="1" layer="-1.00" shape="1927.980651,2968.875635 1933.549568,2967.429308 1930.642617,2956.322446 1927.694235,2957.082924 1925.073692,2957.768776 1927.980651,2968.875635"/>
    <poly id="180102629" type="building.train_station" color="255,230,230" fill="1" layer="-1.00" shape="1939.386334,3049.629678 1945.110868,3048.146245 1942.203150,3037.006066 1939.451395,3037.717322 1936.486574,3038.478197 1939.386334,3049.629678"/>
    <poly id="182809335" type="building.yes" color="255,230,230" fill="1" layer="-1.00" shape="2478.297138,2985.941571 2479.914321,2985.680206 2485.430041,3021.523293 2483.861597,3023.116768 2482.534597,3024.471072 2472.770992,3024.218571 2472.799978,3023.373452 2446.837423,3022.568771 2440.470394,3022.367400 2436.970580,2990.486504 2458.250370,2988.149081 2463.149013,2987.608268 2468.179169,2987.053164 2478.297138,2985.941571"/>
    <poly id="185302367" type="building.yes" color="255,230,230" fill="1" layer="-1.00" shape="2400.752306,3037.851041 2382.778888,3039.230805 2380.864611,3040.154926 2379.972209,3042.098704 2380.564758,3044.106509 2385.340742,3049.390650 2400.752306,3037.851041"/>
    <poly id="187745722" type="amenity.parking" color="184,184,179" fill="1" layer="-1.00" shape="2306.279873,2944.487266 2324.620089,2941.909578 2328.163690,2901.769413 2309.749756,2899.949009 2306.279873,2944.487266"/>
    <poly id="212123713" type="amenity.cafe" color="237,199,199" fill="1" layer="-1.00" shape="2503.433261,3416.952559 2478.862467,3418.091859 2482.861251,3455.616076 2484.907930,3455.399860 2486.229207,3467.767479 2482.633185,3470.021144 2477.437502,3461.002788 2472.787167,3455.448899 2472.532548,3451.399636 2471.151028,3449.477593 2457.169306,3460.815812 2482.093930,3493.355688 2487.449673,3489.926119 2486.858823,3489.007120 2495.419572,3483.511133 2502.411901,3483.008526 2502.406743,3480.753167 2505.084440,3480.732785 2505.002816,3466.468546 2501.369226,3466.489848 2498.372431,3431.885719 2505.191248,3432.042853 2503.433261,3416.952559"/>
    <poly id="212123713#1" type="building.yes" color="255,230,230" fill="1" layer="-1.00" shape="2503.433261,3416.952559 2478.862467,3418.091859 2482.861251,3455.616076 2484.907930,3455.399860 2486.229207,3467.767479 2482.633185,3470.021144 2477.437502,3461.002788 2472.787167,3455.448899 2472.532548,3451.399636 2471.151028,3449.477593 2457.169306,3460.815812 2482.093930,3493.355688 2487.449673,3489.926119 2486.858823,3489.007120 2495.419572,3483.511133 2502.411901,3483.008526 2502.406743,3480.753167 2505.084440,3480.732785 2505.002816,3466.468546 2501.369226,3466.489848 2498.372431,3431.885719 2505.191248,3432.042853 2503.433261,3416.952559"/>
    <poly id="212123815" type="building.yes" color="255,230,230" fill="1" layer="-1.00" shape="2411.624609,2903.191995 2415.855575,2907.067181 2417.942997,2904.783368 2413.703795,2900.908379 2411.624609,2903.191995"/>
    <poly id="212124578" type="building.yes" color="255,230,230" fill="1" layer="-1.00" shape="1869.643285,2994.414304 1873.032045,3007.031620 1878.002097,3005.699793 1875.863810,2997.740854 1881.038429,2996.348506 1879.787968,2991.690127 1869.643285,2994.414304"/>
    <poly id="212124732" type="building.yes" color="255,230,230" fill="1" layer="-1.00" shape="1732.274041,3024.730246 1736.962525,3027.071733 1738.683659,3023.629974 1733.995173,3021.288485 1732.274041,3024.730246"/>
    <poly id="212125104" type="building.yes" color="255,230,230" fill="1" layer="-1.00" shape="1519.074138,3132.370654 1524.953964,3136.594058 1528.581132,3131.561429 1522.709270,3127.326717 1519.074138,3132.370654"/>
    <poly id="213204868" type="building.yes" color="255,230,230" fill="1" layer="-1.00" shape="1956.491598,2969.060985 1960.980990,2986.962568 1993.183109,2983.380759 1991.365111,2964.847652 1956.491598,2969.060985"/>
    <poly id="236603393" type="tourism.artwork" color="207,245,201" fill="1" layer="-2.00" shape="1520.800885,3302.124432 1521.722361,3301.724227 1520.089886,3297.630743 1518.061728,3295.224630 1517.231762,3294.644853 1516.128532,3294.349501 1515.325063,3294.857942 1519.067331,3299.633370 1520.800885,3302.124432"/>
    <poly id="236603394" type="landuse.grass" color="194,194,130" fill="1" layer="-3.00" shape="2025.114563,3266.719678 2023.679841,3264.310132 2023.365339,3262.217826 2023.591692,3260.679042 2024.293848,3259.050931 2025.567526,3257.542275 2026.677802,3256.770899 2028.548760,3256.103276 2030.351375,3256.015074 2032.150456,3256.460276 2033.411349,3257.140759 2034.794675,3258.451586 2035.523850,3259.633851 2036.022266,3261.155042 2036.106843,3262.941827 2035.773150,3264.472106 2034.602467,3266.489356 2033.514324,3267.493520 2031.878560,3268.344316 2030.156542,3268.697221 2028.207449,3268.522320 2026.584711,3267.872844 2025.114563,3266.719678"/>
    <poly id="23787732" type="leisure.park" color="207,245,201" fill="1" layer="-2.00" shape="2061.071398,3517.361954 2055.763902,3515.301957 2054.249634,3514.705398 2052.727131,3514.109039 2051.204627,3513.512681 2050.447628,3513.219954 2049.682123,3512.916323 2048.167854,3512.319766 2046.645349,3511.723408 2045.122845,3511.127051 2031.557991,3506.000948 2029.876308,3505.297351 2028.194355,3504.582650 2026.512403,3503.867949 2025.671696,3503.521703 2024.830719,3503.164352 2023.148765,3502.449652 2021.467081,3501.746057 2019.785127,3501.031358 1959.385806,3477.798703 1949.790949,3474.631833 1912.891933,3463.884016 1900.226981,3460.191812 1745.773106,3420.247150 1607.107976,3380.021534 1573.329840,3370.577245 1569.378838,3368.395697 1566.423570,3366.156580 1564.527728,3362.413934 1564.227797,3359.910186 1564.597806,3357.167914 1584.100222,3305.894470 1592.241906,3295.385460 1629.499880,3200.592271 1622.232610,3197.935840 1634.553864,3166.814604 1640.881289,3169.116147 1678.681978,3068.454705 1680.666840,3051.462424 1706.443563,2985.314998 1709.838029,2979.177053 1715.147122,2974.503620 1722.366793,2970.450382 1730.011247,2968.275661 1738.261952,2967.308397 1747.656164,2966.935546 1781.275512,2964.018287 1916.163795,2949.240985 1921.935897,2949.034124 1926.786849,2949.582952 1931.217284,2951.819727 1934.863326,2955.353297 1937.630284,2961.374815 1940.307345,2974.553870 1949.301074,3013.345463 1965.508482,3067.183685 1975.257795,3092.301787 2013.871648,3189.228158 2028.566357,3223.559330 2036.745563,3242.404685 2042.116785,3252.174023 2049.571647,3263.248306 2146.449681,3386.827166 2148.258454,3389.372100 2149.525159,3391.652415 2150.171863,3394.192207 2150.205187,3396.924653 2149.681399,3398.092881 2145.995227,3403.082163 2061.071398,3517.361954"/>
    <poly id="23787885" type="leisure.park" color="207,245,201" fill="1" layer="-2.00" shape="1314.177929,3289.658788 1313.353969,3285.945627 1335.192886,3219.359251 1374.710692,3101.421136 1439.720181,2928.330383 1676.290441,2977.248597 1679.503203,2985.325793 1681.566231,2990.519921 1680.512258,2993.267708 1679.698487,2995.387446 1614.974040,3164.479987 1543.232679,3351.888167 1334.075237,3296.573597 1317.709720,3292.217076 1314.177929,3289.658788"/>
    <poly id="23882984" type="amenity.parking" color="184,184,179" fill="0" layer="-1.00" shape="1684.946418,3205.720979 1630.787208,3185.083565"/>
    <poly id="23883132" type="leisure.pitch" color="207,245,201" fill="1" layer="-2.00" shape="1831.527717,3116.837152 1798.891313,3112.697173 1804.333499,3074.510363 1836.261755,3078.667586 1833.881710,3097.047149 1831.527717,3116.837152"/>
    <poly id="23883132#1" type="sport.tennis" color="79,230,125" fill="1" layer="-2.00" shape="1831.527717,3116.837152 1798.891313,3112.697173 1804.333499,3074.510363 1836.261755,3078.667586 1833.881710,3097.047149 1831.527717,3116.837152"/>
    <poly id="240312600" type="building.yes" color="255,230,230" fill="1" layer="-1.00" shape="2070.205561,3258.103190 2092.730044,3241.890355 2087.358632,3234.487585 2064.874777,3250.677228 2070.205561,3258.103190"/>
    <poly id="240312601" type="building.yes" color="255,230,230" fill="1" layer="-1.00" shape="2087.358632,3234.487585 2082.439081,3227.707168 2060.038382,3243.928140 2064.874777,3250.677228 2087.358632,3234.487585"/>
    <poly id="240312601#1" type="tourism.information" color="207,245,201" fill="1" layer="-2.00" shape="2087.358632,3234.487585 2082.439081,3227.707168 2060.038382,3243.928140 2064.874777,3250.677228 2087.358632,3234.487585"/>
    <poly id="240312602" type="building.roof" color="255,230,230" fill="1" layer="-1.00" shape="2070.734521,3258.845886 2067.646718,3260.987433 2077.577894,3274.268245 2080.193816,3272.038157 2070.734521,3258.845886"/>
    <poly id="240312603" type="building.yes" color="255,230,230" fill="1" layer="-1.00" shape="2045.881104,3206.606174 2078.852814,3186.217622 2084.982951,3193.301984 2095.996916,3206.034341 2081.948230,3215.630540 2078.598958,3210.734185 2066.593187,3218.936434 2069.933688,3223.810774 2067.020444,3226.014749 2055.399890,3234.807653 2052.499629,3233.811411 2041.796835,3209.116353 2045.881104,3206.606174"/>
    <poly id="240316614" type="natural.scrub" color="140,196,107" fill="1" layer="-4.00" shape="2028.192392,3540.481694 2028.748214,3537.579392 2024.224679,3536.922568 2020.091361,3535.367409 2016.418850,3533.445519 2013.621087,3531.235732 2012.341366,3529.777956 2011.340016,3528.924516 2010.668462,3529.096372 2010.803027,3530.226407 2012.249863,3532.457881 2015.174641,3535.486782 2017.757612,3537.335128 2021.002160,3538.600761 2024.818475,3539.996954 2028.192392,3540.481694"/>
    <poly id="240316616" type="natural.scrub" color="140,196,107" fill="1" layer="-4.00" shape="2025.540098,3550.712469 2026.029641,3547.456230 2014.941919,3545.247717 2010.108544,3544.387320 2007.817009,3544.020749 2005.749848,3544.070941 2001.937772,3544.885705 2000.569249,3546.218899 1999.684722,3548.140324 1999.067096,3550.533033 1999.061632,3552.344226 2000.166269,3553.039606 2002.201540,3553.712389 2003.591973,3551.245361 2004.074693,3549.744793 2004.869413,3548.536640 2005.734185,3547.837884 2008.692149,3547.821616 2011.287055,3548.125268 2013.006673,3548.694610 2025.540098,3550.712469"/>
    <poly id="240316617" type="natural.scrub" color="140,196,107" fill="1" layer="-4.00" shape="2037.125981,3550.020096 2055.452921,3553.752868 2057.245547,3554.953764 2058.318942,3556.738769 2059.255146,3558.982647 2061.332366,3563.420989 2063.501105,3565.179407 2063.425307,3566.470100 2061.354379,3566.364816 2061.174632,3567.446927 2059.886064,3568.000412 2057.855028,3569.538559 2056.535382,3576.959273 2053.538762,3590.998288 2051.211458,3590.854788 2054.124726,3574.740076 2055.460721,3566.974529 2055.836084,3563.087749 2055.647618,3559.736862 2055.086182,3557.994984 2053.605435,3556.742075 2052.045805,3556.313281 2036.621607,3552.665600 2037.125981,3550.020096"/>
    <poly id="240316625" type="natural.scrub" color="140,196,107" fill="1" layer="-4.00" shape="2037.661753,3542.218418 2038.270767,3539.470377 2054.407335,3542.589674 2055.516820,3543.484939 2055.799620,3544.611376 2055.715197,3545.546732 2055.054305,3545.818323 2052.550951,3545.212441 2048.282072,3544.182764 2037.661753,3542.218418"/>