<?xml version="1.0" encoding="UTF-8"?>

<!-- generated on Fri May 22 16:49:49 2020 by Eclipse SUMO netconvert Version 1.6.0
<configuration xmlns:xsi="http://www.w3.org/2001/XMLSchema-instance" xsi:noNamespaceSchemaLocation="http://sumo.dlr.de/xsd/netconvertConfiguration.xsd">

    <input>
        <type-files value="/usr/local/opt/sumo/share/sumo/data/typemap/osmNetconvert.typ.xml"/>
        <osm-files value="osm_bbox.osm.xml"/>
    </input>

    <output>
        <output-file value="osm.net.xml"/>
        <output.street-names value="true"/>
        <output.original-names value="true"/>
    </output>

    <projection>
        <proj.utm value="true"/>
    </projection>

    <processing>
        <geometry.remove value="true"/>
        <roundabouts.guess value="true"/>
    </processing>

    <tls_building>
        <tls.discard-simple value="true"/>
        <tls.join value="true"/>
        <tls.guess-signals value="true"/>
        <tls.default-type value="actuated"/>
    </tls_building>

    <ramp_guessing>
        <ramps.guess value="true"/>
    </ramp_guessing>

    <junctions>
        <junctions.join value="true"/>
        <junctions.corner-detail value="5"/>
    </junctions>

    <report>
        <verbose value="true"/>
        <aggregate-warnings value="5"/>
    </report>

</configuration>
-->

<net version="1.6" junctionCornerDetail="5" limitTurnSpeed="5.50" xmlns:xsi="http://www.w3.org/2001/XMLSchema-instance" xsi:noNamespaceSchemaLocation="http://sumo.dlr.de/xsd/net_file.xsd">

    <location netOffset="-328022.79,-4688026.46" convBoundary="0.00,0.00,2916.47,5076.50" origBoundary="-71.088088,42.326050,-71.052628,42.371595" projParameter="+proj=utm +zone=19 +ellps=WGS84 +datum=WGS84 +units=m +no_defs"/>

    <type id="highway.bridleway" priority="1" numLanes="1" speed="2.78" allow="pedestrian" oneway="1" width="2.00"/>
    <type id="highway.bus_guideway" priority="1" numLanes="1" speed="27.78" allow="bus" oneway="1"/>
    <type id="highway.cycleway" priority="1" numLanes="1" speed="8.33" allow="bicycle" oneway="0" width="1.00"/>
    <type id="highway.footway" priority="1" numLanes="1" speed="2.78" allow="pedestrian" oneway="1" width="2.00"/>
    <type id="highway.ford" priority="1" numLanes="1" speed="2.78" allow="army" oneway="0"/>
    <type id="highway.living_street" priority="2" numLanes="1" speed="2.78" disallow="tram rail_urban rail rail_electric rail_fast ship" oneway="0"/>
    <type id="highway.motorway" priority="14" numLanes="2" speed="39.44" allow="private emergency authority army vip passenger hov taxi bus coach delivery truck trailer motorcycle evehicle custom1 custom2" oneway="1"/>
    <type id="highway.motorway_link" priority="9" numLanes="1" speed="22.22" allow="private emergency authority army vip passenger hov taxi bus coach delivery truck trailer motorcycle evehicle custom1 custom2" oneway="1"/>
    <type id="highway.path" priority="1" numLanes="1" speed="2.78" allow="pedestrian bicycle" oneway="1" width="2.00"/>
    <type id="highway.pedestrian" priority="1" numLanes="1" speed="2.78" allow="pedestrian" oneway="1" width="2.00"/>
    <type id="highway.primary" priority="12" numLanes="2" speed="27.78" disallow="tram rail_urban rail rail_electric rail_fast ship" oneway="0"/>
    <type id="highway.primary_link" priority="7" numLanes="1" speed="22.22" disallow="tram rail_urban rail rail_electric rail_fast ship" oneway="0"/>
    <type id="highway.raceway" priority="15" numLanes="2" speed="83.33" allow="vip" oneway="0"/>
    <type id="highway.residential" priority="3" numLanes="1" speed="13.89" disallow="tram rail_urban rail rail_electric rail_fast ship" oneway="0"/>
    <type id="highway.secondary" priority="11" numLanes="1" speed="27.78" disallow="tram rail_urban rail rail_electric rail_fast ship" oneway="0"/>
    <type id="highway.secondary_link" priority="6" numLanes="1" speed="22.22" disallow="tram rail_urban rail rail_electric rail_fast ship" oneway="0"/>
    <type id="highway.service" priority="1" numLanes="1" speed="5.56" allow="pedestrian delivery bicycle" oneway="0"/>
    <type id="highway.stairs" priority="1" numLanes="1" speed="1.39" allow="pedestrian" oneway="1" width="2.00"/>
    <type id="highway.step" priority="1" numLanes="1" speed="1.39" allow="pedestrian" oneway="1" width="2.00"/>
    <type id="highway.steps" priority="1" numLanes="1" speed="1.39" allow="pedestrian" oneway="1" width="2.00"/>
    <type id="highway.tertiary" priority="10" numLanes="1" speed="22.22" disallow="tram rail_urban rail rail_electric rail_fast ship" oneway="0"/>
    <type id="highway.tertiary_link" priority="5" numLanes="1" speed="22.22" disallow="tram rail_urban rail rail_electric rail_fast ship" oneway="0"/>
    <type id="highway.track" priority="1" numLanes="1" speed="5.56" disallow="tram rail_urban rail rail_electric rail_fast ship" oneway="0"/>
    <type id="highway.trunk" priority="13" numLanes="2" speed="27.78" disallow="pedestrian bicycle tram rail_urban rail rail_electric rail_fast ship" oneway="0"/>
    <type id="highway.trunk_link" priority="8" numLanes="1" speed="22.22" disallow="pedestrian bicycle tram rail_urban rail rail_electric rail_fast ship" oneway="0"/>
    <type id="highway.unclassified" priority="4" numLanes="1" speed="13.89" disallow="tram rail_urban rail rail_electric rail_fast ship" oneway="0"/>
    <type id="highway.unsurfaced" priority="1" numLanes="1" speed="8.33" disallow="tram rail_urban rail rail_electric rail_fast ship" oneway="0"/>
    <type id="railway.highspeed" priority="21" numLanes="1" speed="69.44" allow="rail_fast" oneway="1"/>
    <type id="railway.light_rail" priority="19" numLanes="1" speed="27.78" allow="rail_urban" oneway="1"/>
    <type id="railway.preserved" priority="16" numLanes="1" speed="27.78" allow="rail" oneway="1"/>
    <type id="railway.rail" priority="20" numLanes="1" speed="44.44" allow="rail" oneway="1"/>
    <type id="railway.subway" priority="18" numLanes="1" speed="27.78" allow="rail_urban" oneway="1"/>
    <type id="railway.tram" priority="17" numLanes="1" speed="13.89" allow="tram" oneway="1"/>

    <edge id=":1038884872_0" function="internal">
        <lane id=":1038884872_0_0" index="0" disallow="tram rail_urban rail rail_electric rail_fast ship" speed="25.00" length="8.96" shape="1685.05,3012.57 1684.40,3015.04 1685.15,3016.99 1686.05,3019.00 1685.84,3021.69"/>
        <lane id=":1038884872_0_1" index="1" disallow="tram rail_urban rail rail_electric rail_fast ship" speed="25.00" length="8.96" shape="1685.05,3012.57 1684.00,3014.77 1683.68,3016.45 1683.49,3018.18 1682.84,3020.58"/>
    </edge>
    <edge id=":1038884872_2" function="internal">
        <lane id=":1038884872_2_0" index="0" disallow="tram rail_urban rail rail_electric rail_fast ship" speed="27.78" length="8.20" shape="1688.36,3013.50 1687.72,3015.96 1687.25,3017.64 1686.71,3019.30 1685.84,3021.69"/>
        <lane id=":1038884872_2_1" index="1" disallow="tram rail_urban rail rail_electric rail_fast ship" speed="27.78" length="8.20" shape="1685.28,3012.63 1684.66,3015.02 1684.20,3016.65 1683.68,3018.26 1682.84,3020.58"/>
        <lane id=":1038884872_2_2" index="2" disallow="tram rail_urban rail rail_electric rail_fast ship" speed="27.78" length="8.20" shape="1682.20,3011.76 1681.59,3014.08 1681.16,3015.66 1680.65,3017.22 1679.84,3019.47"/>
        <lane id=":1038884872_2_3" index="3" disallow="tram rail_urban rail rail_electric rail_fast ship" speed="27.78" length="8.20" shape="1679.11,3010.89 1678.53,3013.14 1678.11,3014.67 1677.62,3016.18 1676.83,3018.37"/>
    </edge>
    <edge id=":1038913937_0" function="internal">
        <lane id=":1038913937_0_0" index="0" disallow="tram rail_urban rail rail_electric rail_fast ship" speed="27.78" length="7.06" shape="1542.30,3360.34 1540.27,3361.08 1538.86,3361.55 1537.43,3361.93 1535.33,3362.40"/>
        <lane id=":1038913937_0_1" index="1" disallow="tram rail_urban rail rail_electric rail_fast ship" speed="27.78" length="7.06" shape="1541.20,3357.33 1539.29,3358.03 1537.97,3358.47 1536.63,3358.83 1534.65,3359.27"/>
    </edge>
    <edge id=":1132394642_0" function="internal">
        <lane id=":1132394642_0_0" index="0" allow="pedestrian delivery bicycle" speed="3.65" length="4.67" shape="1877.49,2979.66 1878.70,2980.44 1879.11,2981.24 1878.72,2982.04 1877.53,2982.86"/>
    </edge>
    <edge id=":1132394655_0" function="internal">
        <lane id=":1132394655_0_0" index="0" disallow="tram rail_urban rail rail_electric rail_fast ship" speed="11.18" length="7.47" shape="1422.45,2914.42 1424.98,2907.47"/>
        <lane id=":1132394655_0_1" index="1" disallow="tram rail_urban rail rail_electric rail_fast ship" speed="11.18" length="7.47" shape="1425.45,2915.53 1428.00,2908.54"/>
        <lane id=":1132394655_0_2" index="2" disallow="tram rail_urban rail rail_electric rail_fast ship" speed="11.18" length="7.47" shape="1428.44,2916.65 1431.02,2909.61"/>
        <lane id=":1132394655_0_3" index="3" disallow="tram rail_urban rail rail_electric rail_fast ship" speed="11.18" length="7.47" shape="1431.44,2917.77 1434.03,2910.68"/>
    </edge>
    <edge id=":1132394669_0" function="internal">
        <lane id=":1132394669_0_0" index="0" disallow="tram rail_urban rail rail_electric rail_fast ship" speed="27.78" length="7.08" shape="1560.92,3380.48 1558.87,3380.06 1557.50,3379.65 1556.14,3379.15 1554.15,3378.48"/>
    </edge>
    <edge id=":1132394669_1" function="internal">
        <lane id=":1132394669_1_0" index="0" disallow="tram rail_urban rail rail_electric rail_fast ship" speed="3.66" length="2.22" shape="1560.92,3380.48 1559.98,3379.38 1559.84,3378.63"/>
    </edge>
    <edge id=":1132394669_4" function="internal">
        <lane id=":1132394669_4_0" index="0" disallow="tram rail_urban rail rail_electric rail_fast ship" speed="3.66" length="2.48" shape="1559.84,3378.63 1559.81,3378.50 1560.42,3377.84 1561.80,3377.39"/>
    </edge>
    <edge id=":1132394669_2" function="internal">
        <lane id=":1132394669_2_0" index="0" disallow="tram rail_urban rail rail_electric rail_fast ship" speed="27.78" length="7.00" shape="1555.10,3375.42 1557.07,3376.09 1558.41,3376.58 1559.77,3376.98 1561.80,3377.39"/>
    </edge>
    <edge id=":1132394669_3" function="internal">
        <lane id=":1132394669_3_0" index="0" disallow="tram rail_urban rail rail_electric rail_fast ship" speed="3.65" length="2.34" shape="1555.10,3375.42 1556.00,3376.54 1556.15,3377.43"/>
    </edge>
    <edge id=":1132394669_5" function="internal">
        <lane id=":1132394669_5_0" index="0" disallow="tram rail_urban rail rail_electric rail_fast ship" speed="3.65" length="2.34" shape="1556.15,3377.43 1555.53,3378.07 1554.15,3378.48"/>
    </edge>
    <edge id=":1132394679_0" function="internal">
        <lane id=":1132394679_0_0" index="0" allow="pedestrian delivery bicycle" speed="3.65" length="4.67" shape="1880.64,3030.18 1880.19,3031.55 1879.52,3032.15 1878.64,3031.97 1877.56,3031.03"/>
    </edge>
    <edge id=":1132394754_0" function="internal">
        <lane id=":1132394754_0_0" index="0" disallow="tram rail_urban rail rail_electric rail_fast ship" speed="27.78" length="5.93" shape="1539.42,3373.92 1533.72,3371.96"/>
        <lane id=":1132394754_0_1" index="1" disallow="tram rail_urban rail rail_electric rail_fast ship" speed="27.78" length="5.93" shape="1540.36,3370.87 1534.85,3368.97"/>
    </edge>
    <edge id=":1132394776_0" function="internal">
        <lane id=":1132394776_0_0" index="0" disallow="tram rail_urban rail rail_electric rail_fast ship" speed="11.42" length="9.26" shape="1550.37,3354.02 1548.86,3356.43 1547.53,3357.93 1545.82,3358.97 1543.17,3360.02"/>
        <lane id=":1132394776_0_1" index="1" disallow="tram rail_urban rail rail_electric rail_fast ship" speed="10.90" length="9.26" shape="1547.91,3351.89 1546.53,3354.07 1545.30,3355.41 1543.74,3356.34 1541.33,3357.29"/>
    </edge>
    <edge id=":1132394822_0" function="internal">
        <lane id=":1132394822_0_0" index="0" allow="pedestrian delivery bicycle" speed="5.56" length="9.62" shape="1865.54,2987.27 1862.99,2977.99"/>
    </edge>
    <edge id=":1132394822_1" function="internal">
        <lane id=":1132394822_1_0" index="0" allow="pedestrian delivery bicycle" speed="5.56" length="11.53" shape="1865.54,2987.27 1865.13,2984.01 1865.94,2981.66 1867.96,2980.24 1871.21,2979.73"/>
    </edge>
    <edge id=":1132394822_2" function="internal">
        <lane id=":1132394822_2_0" index="0" allow="pedestrian delivery bicycle" speed="3.65" length="4.67" shape="1865.54,2987.27 1865.99,2985.90 1866.66,2985.30 1867.54,2985.47 1868.62,2986.42"/>
    </edge>
    <edge id=":1132394822_3" function="internal">
        <lane id=":1132394822_3_0" index="0" allow="pedestrian delivery bicycle" speed="4.81" length="5.34" shape="1871.25,2982.93 1869.75,2983.17 1868.81,2983.83 1868.43,2984.91 1868.62,2986.42"/>
    </edge>
    <edge id=":1132394822_4" function="internal">
        <lane id=":1132394822_4_0" index="0" allow="pedestrian delivery bicycle" speed="5.56" length="10.43" shape="1871.25,2982.93 1868.15,2982.65 1865.75,2981.74 1864.03,2980.19 1862.99,2977.99"/>
    </edge>
    <edge id=":1132394822_5" function="internal">
        <lane id=":1132394822_5_0" index="0" allow="pedestrian delivery bicycle" speed="3.65" length="4.67" shape="1871.25,2982.93 1870.04,2982.15 1869.63,2981.35 1870.02,2980.55 1871.21,2979.73"/>
    </edge>
    <edge id=":1132394822_6" function="internal">
        <lane id=":1132394822_6_0" index="0" allow="pedestrian delivery bicycle" speed="5.56" length="6.19" shape="1866.08,2977.15 1866.67,2978.30 1867.72,2979.11 1869.24,2979.59 1871.21,2979.73"/>
    </edge>
    <edge id=":1132394822_7" function="internal">
        <lane id=":1132394822_7_0" index="0" allow="pedestrian delivery bicycle" speed="5.56" length="9.62" shape="1866.08,2977.15 1868.62,2986.42"/>
    </edge>
    <edge id=":1132394822_8" function="internal">
        <lane id=":1132394822_8_0" index="0" allow="pedestrian delivery bicycle" speed="3.65" length="4.67" shape="1866.08,2977.15 1865.63,2978.52 1864.96,2979.11 1864.08,2978.94 1862.99,2977.99"/>
    </edge>
    <edge id=":1132394851_0" function="internal">
        <lane id=":1132394851_0_0" index="0" disallow="tram rail_urban rail rail_electric rail_fast ship" speed="8.80" length="4.98" shape="1440.77,2905.14 1441.54,2906.03 1442.21,2906.52 1443.00,2906.84 1444.14,2907.23"/>
        <lane id=":1132394851_0_1" index="1" disallow="tram rail_urban rail rail_electric rail_fast ship" speed="10.51" length="4.98" shape="1438.24,2907.10 1439.35,2908.41 1440.29,2909.16 1441.41,2909.66 1443.06,2910.24"/>
    </edge>
    <edge id=":1132394894_0" function="internal">
        <lane id=":1132394894_0_0" index="0" disallow="tram rail_urban rail rail_electric rail_fast ship" speed="16.02" length="8.24" shape="1562.32,3356.83 1561.91,3359.11 1562.02,3360.72 1562.45,3362.34 1562.99,3364.66"/>
        <lane id=":1132394894_0_1" index="1" disallow="tram rail_urban rail rail_electric rail_fast ship" speed="16.51" length="8.24" shape="1558.99,3356.93 1558.57,3359.35 1558.74,3361.05 1559.24,3362.77 1559.84,3365.23"/>
    </edge>
    <edge id=":1196976901_0" function="internal">
        <lane id=":1196976901_0_0" index="0" disallow="tram rail_urban rail rail_electric rail_fast ship" speed="11.18" length="7.76" shape="2333.86,3041.25 2331.71,3042.06 2330.25,3042.68 2328.88,3043.47 2327.00,3044.78"/>
    </edge>
    <edge id=":1196976901_1" function="internal">
        <lane id=":1196976901_1_0" index="0" disallow="tram rail_urban rail rail_electric rail_fast ship" speed="11.18" length="8.22" shape="2325.12,3042.19 2326.79,3040.37 2327.40,3038.62 2328.02,3036.87 2329.73,3035.10"/>
        <lane id=":1196976901_1_1" index="1" disallow="tram rail_urban rail rail_electric rail_fast ship" speed="11.18" length="8.22" shape="2325.12,3042.19 2331.51,3037.76"/>
    </edge>
    <edge id=":1196977536_0" function="internal">
        <lane id=":1196977536_0_0" index="0" disallow="tram rail_urban rail rail_electric rail_fast ship" speed="18.26" length="12.80" shape="2494.44,3020.12 2495.17,3023.66 2496.15,3025.96 2497.60,3028.06 2499.80,3031.00"/>
        <lane id=":1196977536_0_1" index="1" disallow="tram rail_urban rail rail_electric rail_fast ship" speed="18.92" length="12.80" shape="2491.28,3020.62 2492.04,3024.43 2493.02,3026.94 2494.53,3029.23 2496.87,3032.40"/>
    </edge>
    <edge id=":1196977536_2" function="internal">
        <lane id=":1196977536_2_0" index="0" disallow="tram rail_urban rail rail_electric rail_fast ship" speed="27.78" length="9.97" shape="2491.28,3020.62 2492.01,3023.49 2492.82,3025.45 2493.33,3027.40 2493.18,3030.27"/>
    </edge>
    <edge id=":1196977536_3" function="internal">
        <lane id=":1196977536_3_0" index="0" disallow="tram rail_urban rail rail_electric rail_fast ship" speed="20.94" length="9.18" shape="2491.28,3020.62 2491.50,3023.28 2491.24,3025.12 2490.66,3026.94 2489.92,3029.58"/>
    </edge>
    <edge id=":1212905951_0" function="internal">
        <lane id=":1212905951_0_0" index="0" disallow="tram rail_urban rail rail_electric rail_fast ship" speed="27.78" length="3.38" shape="2385.15,3516.32 2388.29,3515.08"/>
        <lane id=":1212905951_0_1" index="1" disallow="tram rail_urban rail rail_electric rail_fast ship" speed="27.78" length="3.38" shape="2386.32,3519.30 2389.46,3518.06"/>
    </edge>
    <edge id=":1325838536_0" function="internal">
        <lane id=":1325838536_0_0" index="0" disallow="tram rail_urban rail rail_electric rail_fast ship" speed="27.78" length="11.42" shape="2073.52,3532.88 2076.85,3533.49 2079.43,3532.35 2082.02,3531.20 2085.37,3531.79"/>
        <lane id=":1325838536_0_1" index="1" disallow="tram rail_urban rail rail_electric rail_fast ship" speed="27.78" length="11.42" shape="2072.04,3535.72 2075.38,3536.33 2077.97,3535.19 2080.56,3534.05 2083.91,3534.64"/>
        <lane id=":1325838536_0_2" index="2" disallow="tram rail_urban rail rail_electric rail_fast ship" speed="27.78" length="11.42" shape="2072.04,3535.72 2074.98,3536.68 2077.24,3536.61 2079.50,3536.54 2082.45,3537.48"/>
        <lane id=":1325838536_0_3" index="3" disallow="tram rail_urban rail rail_electric rail_fast ship" speed="27.78" length="11.42" shape="2072.04,3535.72 2080.99,3540.33"/>
    </edge>
    <edge id=":1325838576_0" function="internal">
        <lane id=":1325838576_0_0" index="0" disallow="tram rail_urban rail rail_electric rail_fast ship" speed="27.78" length="5.03" shape="1964.52,3491.41 1959.79,3489.67"/>
    </edge>
    <edge id=":1325838576_1" function="internal">
        <lane id=":1325838576_1_0" index="0" disallow="tram rail_urban rail rail_electric rail_fast ship" speed="3.65" length="2.34" shape="1964.52,3491.41 1963.66,3490.25 1963.56,3489.36"/>
    </edge>
    <edge id=":1325838576_5" function="internal">
        <lane id=":1325838576_5_0" index="0" disallow="tram rail_urban rail rail_electric rail_fast ship" speed="3.65" length="2.34" shape="1963.56,3489.36 1964.21,3488.74 1965.61,3488.40"/>
    </edge>
    <edge id=":1325838576_2" function="internal">
        <lane id=":1325838576_2_0" index="0" disallow="tram rail_urban rail rail_electric rail_fast ship" speed="27.78" length="5.00" shape="1962.03,3483.67 1966.71,3485.40"/>
        <lane id=":1325838576_2_1" index="1" disallow="tram rail_urban rail rail_electric rail_fast ship" speed="27.78" length="5.00" shape="1960.91,3486.67 1965.61,3488.40"/>
    </edge>
    <edge id=":1325838576_4" function="internal">
        <lane id=":1325838576_4_0" index="0" disallow="tram rail_urban rail rail_electric rail_fast ship" speed="3.65" length="2.34" shape="1960.91,3486.67 1961.76,3487.84 1961.85,3488.73"/>
    </edge>
    <edge id=":1325838576_6" function="internal">
        <lane id=":1325838576_6_0" index="0" disallow="tram rail_urban rail rail_electric rail_fast ship" speed="3.65" length="2.34" shape="1961.85,3488.73 1961.20,3489.34 1959.79,3489.67"/>
    </edge>
    <edge id=":1325838642_0" function="internal">
        <lane id=":1325838642_0_0" index="0" disallow="tram rail_urban rail rail_electric rail_fast ship" speed="27.78" length="5.11" shape="2002.41,3505.54 1997.66,3503.63"/>
    </edge>
    <edge id=":1325838642_1" function="internal">
        <lane id=":1325838642_1_0" index="0" disallow="tram rail_urban rail rail_electric rail_fast ship" speed="3.65" length="2.34" shape="2002.41,3505.54 2001.61,3504.34 2001.55,3503.45"/>
    </edge>
    <edge id=":1325838642_5" function="internal">
        <lane id=":1325838642_5_0" index="0" disallow="tram rail_urban rail rail_electric rail_fast ship" speed="3.65" length="2.34" shape="2001.55,3503.45 2002.23,3502.86 2003.64,3502.59"/>
    </edge>
    <edge id=":1325838642_2" function="internal">
        <lane id=":1325838642_2_0" index="0" disallow="tram rail_urban rail rail_electric rail_fast ship" speed="27.78" length="5.31" shape="1999.90,3497.64 2004.88,3499.64"/>
        <lane id=":1325838642_2_1" index="1" disallow="tram rail_urban rail rail_electric rail_fast ship" speed="27.78" length="5.31" shape="1998.78,3500.63 2003.64,3502.59"/>
    </edge>
    <edge id=":1325838642_4" function="internal">
        <lane id=":1325838642_4_0" index="0" disallow="tram rail_urban rail rail_electric rail_fast ship" speed="3.65" length="2.34" shape="1998.78,3500.63 1999.63,3501.80 1999.72,3502.69"/>
    </edge>
    <edge id=":1325838642_6" function="internal">
        <lane id=":1325838642_6_0" index="0" disallow="tram rail_urban rail rail_electric rail_fast ship" speed="3.65" length="2.34" shape="1999.72,3502.69 1999.07,3503.30 1997.66,3503.63"/>
    </edge>
    <edge id=":1545170786_0" function="internal">
        <lane id=":1545170786_0_0" index="0" disallow="tram rail_urban rail rail_electric rail_fast ship" speed="27.78" length="6.26" shape="2474.62,2902.67 2476.09,2908.89"/>
        <lane id=":1545170786_0_1" index="1" disallow="tram rail_urban rail rail_electric rail_fast ship" speed="27.78" length="6.26" shape="2471.53,2903.53 2472.95,2909.50"/>
    </edge>
    <edge id=":1769091084_0" function="internal">
        <lane id=":1769091084_0_0" index="0" allow="bicycle" speed="8.33" length="5.00" width="1.00" shape="1267.92,3562.97 1266.76,3558.10"/>
    </edge>
    <edge id=":1769091084_1" function="internal">
        <lane id=":1769091084_1_0" index="0" allow="bicycle" speed="2.04" length="1.46" width="1.00" shape="1267.92,3562.97 1268.08,3562.54 1268.30,3562.37 1268.57,3562.43 1268.90,3562.74"/>
    </edge>
    <edge id=":1769091084_2" function="internal">
        <lane id=":1769091084_2_0" index="0" allow="bicycle" speed="8.33" length="5.00" width="1.00" shape="1267.74,3557.88 1268.90,3562.74"/>
    </edge>
    <edge id=":1769091084_3" function="internal">
        <lane id=":1769091084_3_0" index="0" allow="bicycle" speed="2.04" length="1.47" width="1.00" shape="1267.74,3557.88 1267.58,3558.30 1267.37,3558.48 1267.09,3558.41 1266.76,3558.10"/>
    </edge>
    <edge id=":1798698906_0" function="internal">
        <lane id=":1798698906_0_0" index="0" disallow="tram rail_urban rail rail_electric rail_fast ship" speed="6.49" length="9.03" shape="1677.30,3469.67 1679.76,3469.96 1681.72,3469.39 1683.18,3467.97 1684.13,3465.68"/>
    </edge>
    <edge id=":1798698906_1" function="internal">
        <lane id=":1798698906_1_0" index="0" disallow="tram rail_urban rail rail_electric rail_fast ship" speed="11.18" length="7.05" shape="1682.38,3472.51 1684.13,3465.68"/>
    </edge>
    <edge id=":1822081758_0" function="internal">
        <lane id=":1822081758_0_0" index="0" allow="bicycle" speed="2.04" length="1.46" width="1.00" shape="1166.02,3379.53 1165.84,3379.11 1165.87,3378.84 1166.11,3378.69 1166.56,3378.69"/>
    </edge>
    <edge id=":1830597771_0" function="internal">
        <lane id=":1830597771_0_0" index="0" disallow="tram rail_urban rail rail_electric rail_fast ship" speed="22.22" length="5.89" shape="1717.40,2969.19 1715.85,2970.01 1714.83,2970.64 1713.88,2971.37 1712.57,2972.53"/>
    </edge>
    <edge id=":1830597811_0" function="internal">
        <lane id=":1830597811_0_0" index="0" disallow="tram rail_urban rail rail_electric rail_fast ship" speed="27.78" length="4.39" shape="2047.51,3257.77 2045.17,3254.03"/>
        <lane id=":1830597811_0_1" index="1" disallow="tram rail_urban rail rail_electric rail_fast ship" speed="27.78" length="4.39" shape="2050.22,3256.07 2047.88,3252.35"/>
        <lane id=":1830597811_0_2" index="2" disallow="tram rail_urban rail rail_electric rail_fast ship" speed="27.78" length="4.39" shape="2052.93,3254.37 2050.60,3250.66"/>
        <lane id=":1830597811_0_3" index="3" disallow="tram rail_urban rail rail_electric rail_fast ship" speed="27.78" length="4.39" shape="2055.64,3252.67 2053.32,3248.97"/>
    </edge>
    <edge id=":1830597811_4" function="internal">
        <lane id=":1830597811_4_0" index="0" allow="pedestrian bicycle" speed="15.28" length="6.17" width="2.00" shape="2055.64,3252.67 2049.63,3251.26"/>
    </edge>
    <edge id=":1830597811_5" function="internal">
        <lane id=":1830597811_5_0" index="0" allow="pedestrian bicycle" speed="5.48" length="7.06" shape="2056.75,3248.83 2054.54,3250.40 2052.79,3251.23 2051.47,3251.32 2050.60,3250.66"/>
    </edge>
    <edge id=":1830597811_6" function="internal">
        <lane id=":1830597811_6_0" index="0" allow="pedestrian bicycle" speed="4.25" length="3.97" shape="2056.75,3248.83 2055.66,3249.54 2054.72,3249.80 2053.94,3249.61 2053.32,3248.97"/>
    </edge>
    <edge id=":1830597811_7" function="internal">
        <lane id=":1830597811_7_0" index="0" allow="pedestrian bicycle" speed="2.78" length="8.33" width="2.00" shape="2056.75,3248.83 2054.01,3250.82 2051.92,3251.89 2050.46,3252.04 2049.63,3251.26"/>
    </edge>
    <edge id=":1830597833_0" function="internal">
        <lane id=":1830597833_0_0" index="0" disallow="tram rail_urban rail rail_electric rail_fast ship" speed="9.02" length="7.20" shape="1563.03,3364.89 1563.43,3366.69 1563.97,3367.87 1564.85,3368.85 1566.28,3370.04"/>
        <lane id=":1830597833_0_1" index="1" disallow="tram rail_urban rail rail_electric rail_fast ship" speed="14.54" length="7.20" shape="1560.06,3366.20 1561.00,3368.41 1561.74,3369.91 1562.77,3371.19 1564.55,3372.75"/>
    </edge>
    <edge id=":1830597839_0" function="internal">
        <lane id=":1830597839_0_0" index="0" disallow="tram rail_urban rail rail_electric rail_fast ship" speed="27.78" length="4.05" shape="1541.76,3383.73 1543.15,3379.95"/>
        <lane id=":1830597839_0_1" index="1" disallow="tram rail_urban rail rail_electric rail_fast ship" speed="27.78" length="4.05" shape="1544.76,3384.85 1546.16,3381.03"/>
    </edge>
    <edge id=":1830597855_0" function="internal">
        <lane id=":1830597855_0_0" index="0" disallow="tram rail_urban rail rail_electric rail_fast ship" speed="27.78" length="5.00" shape="1782.86,3438.64 1778.04,3437.31"/>
    </edge>
    <edge id=":1830597855_1" function="internal">
        <lane id=":1830597855_1_0" index="0" disallow="tram rail_urban rail rail_electric rail_fast ship" speed="3.65" length="2.34" shape="1782.86,3438.64 1781.92,3437.55 1781.75,3436.67"/>
    </edge>
    <edge id=":1830597855_5" function="internal">
        <lane id=":1830597855_5_0" index="0" disallow="tram rail_urban rail rail_electric rail_fast ship" speed="3.65" length="2.34" shape="1781.75,3436.67 1782.34,3436.00 1783.71,3435.55"/>
    </edge>
    <edge id=":1830597855_2" function="internal">
        <lane id=":1830597855_2_0" index="0" disallow="tram rail_urban rail rail_electric rail_fast ship" speed="27.78" length="5.00" shape="1779.74,3431.14 1784.57,3432.47"/>
        <lane id=":1830597855_2_1" index="1" disallow="tram rail_urban rail rail_electric rail_fast ship" speed="27.78" length="5.00" shape="1778.89,3434.22 1783.71,3435.55"/>
    </edge>
    <edge id=":1830597855_4" function="internal">
        <lane id=":1830597855_4_0" index="0" disallow="tram rail_urban rail rail_electric rail_fast ship" speed="3.65" length="2.34" shape="1778.89,3434.22 1779.83,3435.31 1780.01,3436.19"/>
    </edge>
    <edge id=":1830597855_6" function="internal">
        <lane id=":1830597855_6_0" index="0" disallow="tram rail_urban rail rail_electric rail_fast ship" speed="3.65" length="2.34" shape="1780.01,3436.19 1779.41,3436.85 1778.04,3437.31"/>
    </edge>
    <edge id=":1905377882_0" function="internal">
        <lane id=":1905377882_0_0" index="0" disallow="tram rail_urban rail rail_electric rail_fast ship" speed="18.37" length="7.62" shape="2432.24,2926.61 2434.46,2926.22 2436.01,2926.08 2437.56,2926.21 2439.78,2926.64"/>
    </edge>
    <edge id=":1905377882_1" function="internal">
        <lane id=":1905377882_1_0" index="0" disallow="tram rail_urban rail rail_electric rail_fast ship" speed="27.78" length="7.99" shape="2432.82,2929.76 2440.67,2928.30"/>
        <lane id=":1905377882_1_1" index="1" disallow="tram rail_urban rail rail_electric rail_fast ship" speed="27.78" length="7.99" shape="2433.40,2932.91 2441.26,2931.44"/>
    </edge>
    <edge id=":1958749767_0" function="internal">
        <lane id=":1958749767_0_0" index="0" disallow="tram rail_urban rail rail_electric rail_fast ship" speed="11.18" length="4.99" shape="2438.52,3029.51 2433.55,3029.88"/>
    </edge>
    <edge id=":1972361170_0" function="internal">
        <lane id=":1972361170_0_0" index="0" allow="pedestrian delivery bicycle" speed="5.00" length="5.05" shape="2410.81,3583.49 2410.10,3582.30 2409.19,3581.63 2408.06,3581.49 2406.73,3581.88"/>
    </edge>
    <edge id=":1972361170_1" function="internal">
        <lane id=":1972361170_1_0" index="0" allow="pedestrian delivery bicycle" speed="6.83" length="10.36" shape="2413.77,3582.28 2412.32,3579.82 2410.45,3578.45 2408.14,3578.16 2405.40,3578.97"/>
    </edge>
    <edge id=":2353642707_0" function="internal">