<?xml version="1.0" encoding="UTF-8"?>

<!-- generated on Fri Jul 10 17:30:37 2020 by Eclipse SUMO duarouter Version 1.6.0
<configuration xmlns:xsi="http://www.w3.org/2001/XMLSchema-instance" xsi:noNamespaceSchemaLocation="http://sumo.dlr.de/xsd/duarouterConfiguration.xsd">

    <input>
        <net-file value="/usr/local/Cellar/sumo/1.6.0/share/sumo/tools/2020-07-10-17-29-41/osm.net.xml"/>
        <route-files value="/usr/local/Cellar/sumo/1.6.0/share/sumo/tools/2020-07-10-17-29-41/osm.passenger.trips.xml"/>
    </input>

    <output>
        <output-file value="/usr/local/Cellar/sumo/1.6.0/share/sumo/tools/2020-07-10-17-29-41/osm.passenger.trips.xml.tmp"/>
        <write-trips value="true"/>
    </output>

    <time>
        <begin value="0"/>
        <end value="3600.0"/>
    </time>

    <report>
        <no-warnings value="true"/>
        <ignore-errors value="true"/>
        <no-step-log value="true"/>
    </report>

</configuration>
-->

<routes xmlns:xsi="http://www.w3.org/2001/XMLSchema-instance" xsi:noNamespaceSchemaLocation="http://sumo.dlr.de/xsd/routes_file.xsd">
    <vType id="veh_passenger" vClass="passenger"/>
    <trip id="veh0" type="veh_passenger" depart="0.00" departLane="best" from="4253225#0" to="-156155815#0"/>
    <trip id="veh1" type="veh_passenger" depart="0.56" departLane="best" from="100452068#0" to="-570440723"/>
    <trip id="veh2" type="veh_passenger" depart="1.13" departLane="best" from="4260283" to="4254075#0"/>
    <trip id="veh5" type="veh_passenger" depart="2.82" departLane="best" from="-570004139#0" to="26997928#0"/>
    <trip id="veh6" type="veh_passenger" depart="3.39" departLane="best" from="-157547564#1" to="-49797408#1"/>
    <trip id="veh7" type="veh_passenger" depart="3.95" departLane="best" from="4253444#0" to="31426495#4"/>
    <trip id="veh8" type="veh_passenger" depart="4.52" departLane="best" from="-570440723" to="39276108#3"/>
    <trip id="veh9" type="veh_passenger" depart="5.08" departLane="best" from="47685956#1" to="-137518417#1"/>
    <trip id="veh10" type="veh_passenger" depart="5.65" departLane="best" departSpeed="max" from="474261740#0" to="4255578#1"/>
    <trip id="veh11" type="veh_passenger" depart="6.21" departLane="best" from="158615404#3" to="-4256301"/>
    <trip id="veh12" type="veh_passenger" depart="6.78" departLane="best" from="728793125#0" to="156310004#0"/>
    <trip id="veh14" type="veh_passenger" depart="7.91" departLane="best" departSpeed="max" from="51434497#0" to="4068455#2"/>
    <trip id="veh15" type="veh_passenger" depart="8.47" departLane="best" from="476448484#0" to="4259294"/>
    <trip id="veh16" type="veh_passenger" depart="9.04" departLane="best" from="303982842" to="770901750#0"/>
    <trip id="veh17" type="veh_passenger" depart="9.60" departLane="best" from="200596450#12" to="320247384"/>
    <trip id="veh18" type="veh_passenger" depart="10.16" departLane="best" from="498958810#0" to="4084177#1"/>
    <trip id="veh19" type="veh_passenger" depart="10.73" departLane="best" from="544787766#4" to="379356921#0"/>
    <trip id="veh20" type="veh_passenger" depart="11.29" departLane="best" from="4256251" to="-204726687#4"/>
    <trip id="veh21" type="veh_passenger" depart="11.86" departLane="best" from="-61074704" to="134630579#1"/>
    <trip id="veh22" type="veh_passenger" depart="12.42" departLane="best" from="-30609421#1" to="-619866626"/>
    <trip id="veh23" type="veh_passenger" depart="12.99" departLane="best" from="-39535531#1" to="100077167#2"/>
    <trip id="veh24" type="veh_passenger" depart="13.55" departLane="best" departSpeed="max" from="4252579#0" to="187870646#0"/>
    <trip id="veh25" type="veh_passenger" depart="14.12" departLane="best" from="199511595#0" to="-534031399#0"/>
    <trip id="veh26" type="veh_passenger" depart="14.68" departLane="best" from="-7970638#1" to="67551928#0"/>
    <trip id="veh27" type="veh_passenger" depart="15.25" departLane="best" from="4253429#1" to="4082527"/>
    <trip id="veh28" type="veh_passenger" depart="15.81" departLane="best" from="-4360148" to="4259293#0"/>
    <trip id="veh29" type="veh_passenger" depart="16.38" departLane="best" from="-4259262" to="200596105#3"/>
    <trip id="veh30" type="veh_passenger" depart="16.94" departLane="best" from="8169022#2" to="4253340"/>
    <trip id="veh31" type="veh_passenger" depart="17.51" departLane="best" from="324319421#0" to="4255327"/>
    <trip id="veh32" type="veh_passenger" depart="18.07" departLane="best" from="5090250#1" to="4376581#3"/>
    <trip id="veh33" type="veh_passenger" depart="18.64" departLane="best" from="-615887031" to="-166364279#16"/>
    <trip id="veh34" type="veh_passenger" depart="19.20" departLane="best" from="154029152#2" to="-771659321"/>
    <trip id="veh35" type="veh_passenger" depart="19.77" departLane="best" from="-544787766#1" to="681004869#3"/>
    <trip id="veh36" type="veh_passenger" depart="20.33" departLane="best" from="57007655#1" to="148890687#1"/>
    <trip id="veh37" type="veh_passenger" depart="20.89" departLane="best" from="4253494#8" to="207528495#0"/>
    <trip id="veh38" type="veh_passenger" depart="21.46" departLane="best" from="647037415#0" to="237493874"/>
    <trip id="veh39" type="veh_passenger" depart="22.02" departLane="best" from="-773887353#1" to="-662531827#3"/>
    <trip id="veh40" type="veh_passenger" depart="22.59" departLane="best" from="33096424#3" to="-735118022"/>
    <trip id="veh41" type="veh_passenger" depart="23.15" departLane="best" from="38748499#1" to="615664502#1"/>
    <trip id="veh42" type="veh_passenger" depart="23.72" departLane="best" from="208175220" to="-563014826#0"/>
    <trip id="veh43" type="veh_passenger" depart="24.28" departLane="best" from="95211064#0" to="27870976#1"/>
    <trip id="veh44" type="veh_passenger" depart="24.85" departLane="best" from="-368203568" to="-209692646#1"/>
    <trip id="veh45" type="veh_passenger" depart="25.41" departLane="best" from="-4082604#0" to="423007010#2"/>
    <trip id="veh46" type="veh_passenger" depart="25.98" departLane="best" from="447569407#2" to="2190803#0"/>
    <trip id="veh47" type="veh_passenger" depart="26.54" departLane="best" from="-25803174#2" to="200596450#4"/>
    <trip id="veh48" type="veh_passenger" depart="27.11" departLane="best" from="94584336" to="30279890#1"/>
    <trip id="veh49" type="veh_passenger" depart="27.67" departLane="best" from="74865693#3" to="544787766#2"/>
    <trip id="veh50" type="veh_passenger" depart="28.24" departLane="best" from="-148377822#2" to="4257229"/>
    <trip id="veh51" type="veh_passenger" depart="28.80" departLane="best" from="4255085#2" to="30609416#1"/>
    <trip id="veh52" type="veh_passenger" depart="29.37" departLane="best" from="-7846317" to="4253365#1"/>
    <trip id="veh53" type="veh_passenger" depart="29.93" departLane="best" from="-4084178#1" to="232724498#0"/>
    <trip id="veh54" type="veh_passenger" depart="30.49" departLane="best" from="236942865" to="72140279#2"/>
    <trip id="veh55" type="veh_passenger" depart="31.06" departLane="best" from="57007567#0" to="-74167678#1"/>
    <trip id="veh56" type="veh_passenger" depart="31.62" departLane="best" from="2631518#0" to="-4376564#1"/>
    <trip id="veh57" type="veh_passenger" depart="32.19" departLane="best" from="647023497#1" to="56062189#1"/>
    <trip id="veh58" type="veh_passenger" depart="32.75" departLane="best" from="148065620#2" to="4253335"/>
    <trip id="veh59" type="veh_passenger" depart="33.32" departLane="best" from="4082558#0" to="-4255808#2"/>
    <trip id="veh60" type="veh_passenger" depart="33.88" departLane="best" departSpeed="max" from="4369049#2" to="3076785#6"/>
    <trip id="veh61" type="veh_passenger" depart="34.45" departLane="best" from="4376570" to="30280294"/>
    <trip id="veh62" type="veh_passenger" depart="35.01" departLane="best" from="-100684516#0" to="154340959#0"/>
    <trip id="veh63" type="veh_passenger" depart="35.58" departLane="best" from="-154029169#8" to="669859108#1"/>
    <trip id="veh64" type="veh_passenger" depart="36.14" departLane="best" from="581022544" to="49932205#4"/>
    <trip id="veh65" type="veh_passenger" depart="36.71" departLane="best" from="148677470#7" to="-241253345#0"/>
    <trip id="veh66" type="veh_passenger" depart="37.27" departLane="best" from="572619930" to="694563839#0"/>
    <trip id="veh68" type="veh_passenger" depart="38.40" departLane="best" from="-26997928#2" to="436938218#1"/>
    <trip id="veh69" type="veh_passenger" depart="38.97" departLane="best" from="436938220#12" to="-4253454#0"/>
    <trip id="veh70" type="veh_passenger" depart="39.53" departLane="best" from="251325041" to="319017443#2"/>
    <trip id="veh71" type="veh_passenger" depart="40.09" departLane="best" from="-777563012#1" to="563008389#2"/>
    <trip id="veh72" type="veh_passenger" depart="40.66" departLane="best" from="2199185" to="-537856042#3"/>
    <trip id="veh73" type="veh_passenger" depart="41.22" departLane="best" from="30609416#1" to="4259311#0"/>
    <trip id="veh74" type="veh_passenger" depart="41.79" departLane="best" from="-49932212#1" to="148685786#0"/>
    <trip id="veh75" type="veh_passenger" depart="42.35" departLane="best" from="9346429#1" to="4253451#3"/>
    <trip id="veh76" type="veh_passenger" depart="42.92" departLane="best" from="233070703#1" to="288506479#8"/>
    <trip id="veh79" type="veh_passenger" depart="44.61" departLane="best" from="-619867272#1" to="-570003829"/>
    <trip id="veh80" type="veh_passenger" depart="45.18" departLane="best" from="-27846827" to="42471572"/>
    <trip id="veh81" type="veh_passenger" depart="45.74" departLane="best" from="-615664502#3" to="627472868#1"/>
    <trip id="veh82" type="veh_passenger" depart="46.31" departLane="best" from="542471105#3" to="-273139758#0"/>
    <trip id="veh83" type="veh_passenger" depart="46.87" departLane="best" from="-647037415#1" to="4253898"/>
    <trip id="veh85" type="veh_passenger" depart="48.00" departLane="best" from="674795487#2" to="3727764#0"/>
    <trip id="veh86" type="veh_passenger" depart="48.57" departLane="best" from="251325040#0" to="4393240#3"/>
    <trip id="veh87" type="veh_passenger" depart="49.13" departLane="best" from="476448484#2" to="-46180198#5"/>
    <trip id="veh88" type="veh_passenger" depart="49.70" departLane="best" from="-38310799#0" to="22760647#1"/>
    <trip id="veh89" type="veh_passenger" depart="50.26" departLane="best" from="2199749#0" to="241929531"/>
    <trip id="veh90" type="veh_passenger" depart="50.82" departLane="best" from="4259266#1" to="4253976#5"/>
    <trip id="veh91" type="veh_passenger" depart="51.39" departLane="best" from="7970840#1" to="-38325238"/>
    <trip id="veh92" type="veh_passenger" depart="51.95" departLane="best" from="209689554#0" to="157547564#1"/>
    <trip id="veh93" type="veh_passenger" depart="52.52" departLane="best" from="544787766#4" to="-66678980#0"/>
    <trip id="veh94" type="veh_passenger" depart="53.08" departLane="best" from="-471980165" to="236034852#2"/>
    <trip id="veh96" type="veh_passenger" depart="54.21" departLane="best" from="-675079538#2" to="66676148#0"/>
    <trip id="veh97" type="veh_passenger" depart="54.78" departLane="best" from="233625361#2" to="544787766#3"/>
    <trip id="veh98" type="veh_passenger" depart="55.34" departLane="best" from="314995531#4" to="-22760594#1"/>
    <trip id="veh99" type="veh_passenger" depart="55.91" departLane="best" from="98344119#0" to="49934757#1"/>
    <trip id="veh100" type="veh_passenger" depart="56.47" departLane="best" from="747147375#1" to="66789464#0"/>
    <trip id="veh101" type="veh_passenger" depart="57.04" departLane="best" from="517045944#1" to="-4259311#1"/>
    <trip id="veh103" type="veh_passenger" depart="58.17" departLane="best" from="209364980#3" to="-2424001#1"/>
    <trip id="veh104" type="veh_passenger" depart="58.73" departLane="best" from="200596450#2" to="8137387"/>
    <trip id="veh105" type="veh_passenger" depart="59.30" departLane="best" from="-777563012#1" to="4393240#0"/>
    <trip id="veh106" type="veh_passenger" depart="59.86" departLane="best" departSpeed="max" from="236942866#0" to="2191122#1"/>
    <trip id="veh107" type="veh_passenger" depart="60.42" departLane="best" from="320247380#1" to="4256918#2"/>
    <trip id="veh108" type="veh_passenger" depart="60.99" departLane="best" from="-4256509#1" to="147997980#0"/>
    <trip id="veh109" type="veh_passenger" depart="61.55" departLane="best" from="3076785#8" to="4340737"/>
    <trip id="veh110" type="veh_passenger" depart="62.12" departLane="best" from="-240343183#7" to="38748498#5"/>
    <trip id="veh111" type="veh_passenger" depart="62.68" departLane="best" from="264965256" to="532636971#0"/>
    <trip id="veh112" type="veh_passenger" depart="63.25" departLane="best" from="-4256725#2" to="732968087"/>
    <trip id="veh113" type="veh_passenger" depart="63.81" departLane="best" from="-30617940" to="-440100155"/>
    <trip id="veh114" type="veh_passenger" depart="64.38" departLane="best" from="401189740#1" to="4254070#2"/>
    <trip id="veh115" type="veh_passenger" depart="64.94" departLane="best" from="-633124855" to="-4253205#0"/>
    <trip id="veh116" type="veh_passenger" depart="65.51" departLane="best" from="59718434#0" to="-662531827#2"/>
    <trip id="veh117" type="veh_passenger" depart="66.07" departLane="best" from="400909507#1" to="40976541#2"/>
    <trip id="veh118" type="veh_passenger" depart="66.64" departLane="best" from="217241358#1" to="38748215#3"/>
    <trip id="veh119" type="veh_passenger" depart="67.20" departLane="best" from="292570593" to="674795487#2"/>
    <trip id="veh120" type="veh_passenger" depart="67.77" departLane="best" from="-513773775#3" to="4256871#5"/>
    <trip id="veh121" type="veh_passenger" depart="68.33" departLane="best" from="-647037417#0" to="207528495#0"/>
    <trip id="veh122" type="veh_passenger" depart="68.90" departLane="best" from="4253931#1" to="148004644#0"/>
    <trip id="veh123" type="veh_passenger" depart="69.46" departLane="best" from="154029163" to="43573213#3"/>
    <trip id="veh124" type="veh_passenger" depart="70.02" departLane="best" from="-2876904#2" to="23715311#4"/>
    <trip id="veh125" type="veh_passenger" depart="70.59" departLane="best" from="95212401" to="94584336"/>
    <trip id="veh126" type="veh_passenger" depart="71.15" departLane="best" from="-2876904#6" to="-542471105#6"/>
    <trip id="veh127" type="veh_passenger" depart="71.72" departLane="best" from="-777563012#1" to="673569249#1"/>
    <trip id="veh128" type="veh_passenger" depart="72.28" departLane="best" from="582963395" to="582952346#1"/>
    <trip id="veh129" type="veh_passenger" depart="72.85" departLane="best" from="198190852#2" to="-4256525#0"/>
    <trip id="veh130" type="veh_passenger" depart="73.41" departLane="best" from="49932212#1" to="4256271#0"/>
    <trip id="veh131" type="veh_passenger" depart="73.98" departLane="best" from="4082566#6" to="816050584"/>
    <trip id="veh132" type="veh_passenger" depart="74.54" departLane="best" from="4253462#6" to="-147980652"/>
    <trip id="veh133" type="veh_passenger" depart="75.11" departLane="best" from="494889756#1" to="148004642#0"/>
    <trip id="veh134" type="veh_passenger" depart="75.67" departLane="best" from="4253713#0" to="675675710#2"/>
    <trip id="veh135" type="veh_passenger" depart="76.24" departLane="best" from="-4253727" to="-41660593#2"/>
    <trip id="veh136" type="veh_passenger" depart="76.80" departLane="best" from="-4075808" to="324319421#0"/>
    <trip id="veh137" type="veh_passenger" depart="77.37" departLane="best" from="-84698722#2" to="4068457#1"/>
    <trip id="veh138" type="veh_passenger" depart="77.93" departLane="best" from="4256876#1" to="-49932212#0"/>
    <trip id="veh139" type="veh_passenger" depart="78.50" departLane="best" from="4250577#1" to="-747147375#0"/>
    <trip id="veh140" type="veh_passenger" depart="79.06" departLane="best" from="257776030#0" to="627472868#0"/>
    <trip id="veh141" type="veh_passenger" depart="79.63" departLane="best" departSpeed="max" from="51434497#0" to="-3700585#0"/>
    <trip id="veh142" type="veh_passenger" depart="80.19" departLane="best" from="2199749#0" to="-94576669#1"/>
    <trip id="veh143" type="veh_passenger" depart="80.75" departLane="best" from="4253153" to="-732964441"/>
    <trip id="veh144" type="veh_passenger" depart="81.32" departLane="best" from="4276391#1" to="320247380#0"/>
    <trip id="veh145" type="veh_passenger" depart="81.88" departLane="best" from="2263976#0" to="-147997993#0"/>
    <trip id="veh146" type="veh_passenger" depart="82.45" departLane="best" from="619867272#8" to="31476941#2"/>
    <trip id="veh147" type="veh_passenger" depart="83.01" departLane="best" from="49934748#2" to="38433761#0"/>
    <trip id="veh148" type="veh_passenger" depart="83.58" departLane="best" from="-4255370" to="-4253451#0"/>
    <trip id="veh149" type="veh_passenger" depart="84.14" departLane="best" from="148685785#3" to="615887032#1"/>
    <trip id="veh150" type="veh_passenger" depart="84.71" departLane="best" from="4615512#0" to="544787766#1"/>
    <trip id="veh151" type="veh_passenger" depart="85.27" departLane="best" from="615664502#1" to="-534031399#3"/>
    <trip id="veh153" type="veh_passenger" depart="86.40" departLane="best" from="4376586" to="587550106"/>
    <trip id="veh154" type="veh_passenger" depart="86.97" departLane="best" from="209692646#4" to="415669919#1"/>
    <trip id="veh155" type="veh_passenger" depart="87.53" departLane="best" from="548787265" to="777563012#2"/>
    <trip id="veh156" type="veh_passenger" depart="88.10" departLane="best" from="479915597#3" to="585735068#1"/>
    <trip id="veh157" type="veh_passenger" depart="88.66" departLane="best" from="-156155815#0" to="4260285#1"/>
    <trip id="veh158" type="veh_passenger" depart="89.23" departLane="best" from="156155840#1" to="670555714#1"/>
    <trip id="veh159" type="veh_passenger" depart="89.79" departLane="best" from="468181431#4" to="547560261#0"/>
    <trip id="veh160" type="veh_passenger" depart="90.35" departLane="best" from="479915597#3" to="-753458072#1"/>
    <trip id="veh161" type="veh_passenger" depart="90.92" departLane="best" from="43892838#0" to="-4075106"/>
    <trip id="veh162" type="veh_passenger" depart="91.48" departLane="best" from="563008389#1" to="542471105#1"/>
    <trip id="veh163" type="veh_passenger" depart="92.05" departLane="best" from="-582952346#1" to="496107413#4"/>
    <trip id="veh165" type="veh_passenger" depart="93.18" departLane="best" from="4615506#1" to="-58987876#0"/>
    <trip id="veh166" type="veh_passenger" depart="93.74" departLane="best" from="-156097875#0" to="-476448486#3"/>
    <trip id="veh167" type="veh_passenger" depart="94.31" departLane="best" from="156097875#5" to="547560261#1"/>
    <trip id="veh168" type="veh_passenger" depart="94.87" departLane="best" from="741348618" to="100684516#1"/>
    <trip id="veh170" type="veh_passenger" depart="96.00" departLane="best" from="79318523#1" to="304118931#0"/>
    <trip id="veh171" type="veh_passenger" depart="96.57" departLane="best" from="675567632#2" to="-41660593#2"/>
    <trip id="veh172" type="veh_passenger" depart="97.13" departLane="best" from="747397978#2" to="-4376564#0"/>
    <trip id="veh173" type="veh_passenger" depart="97.70" departLane="best" from="732968089" to="-74865693#0"/>
    <trip id="veh174" type="veh_passenger" depart="98.26" departLane="best" from="-4082596#2" to="232724498#0"/>
    <trip id="veh175" type="veh_passenger" depart="98.83" departLane="best" from="4259249#1" to="148871630"/>
    <trip id="veh177" type="veh_passenger" depart="99.95" departLane="best" from="201725618#1" to="379356921#0"/>
    <trip id="veh179" type="veh_passenger" depart="101.08" departLane="best" from="-112172868#1" to="667569299#1"/>
    <trip id="veh181" type="veh_passenger" depart="102.21" departLane="best" from="4276413#0" to="4253952#2"/>
    <trip id="veh182" type="veh_passenger" depart="102.78" departLane="best" from="188281273#0" to="-26997928#2"/>
    <trip id="veh183" type="veh_passenger" depart="103.34" departLane="best" from="4253727" to="155451007#1"/>
    <trip id="veh184" type="veh_passenger" depart="103.91" departLane="best" from="148893868#2" to="517045944#0"/>
    <trip id="veh185" type="veh_passenger" depart="104.47" departLane="best" from="4257022" to="148065616"/>
    <trip id="veh186" type="veh_passenger" depart="105.04" departLane="best" from="148685788#2" to="211479865#1"/>
    <trip id="veh187" type="veh_passenger" depart="105.60" departLane="best" from="209689554#0" to="147248800"/>
    <trip id="veh188" type="veh_passenger" depart="106.17" departLane="best" from="-4253494#0" to="216153511"/>
    <trip id="veh189" type="veh_passenger" depart="106.73" departLane="best" from="676541202#0" to="4254105"/>
    <trip id="veh190" type="veh_passenger" depart="107.30" departLane="best" from="619867272#14" to="4082603#0"/>
    <trip id="veh191" type="veh_passenger" depart="107.86" departLane="best" from="148386199#0" to="318234580"/>
    <trip id="veh192" type="veh_passenger" depart="108.43" departLane="best" from="-10064542#0" to="122040118#2"/>
    <trip id="veh193" type="veh_passenger" depart="108.99" departLane="best" from="22760647#1" to="38310454#0"/>
    <trip id="veh194" type="veh_passenger" depart="109.56" departLane="best" from="4253494#10" to="240343183#4"/>
    <trip id="veh195" type="veh_passenger" depart="110.12" departLane="best" from="233625361#0" to="-544787766#1"/>
    <trip id="veh196" type="veh_passenger" depart="110.68" departLane="best" from="251325040#1" to="619867272#1"/>
    <trip id="veh197" type="veh_passenger" depart="111.25" departLane="best" from="4615510#2" to="-4277054#0"/>
    <trip id="veh198" type="veh_passenger" depart="111.81" departLane="best" from="-317900064#1" to="2876904#4"/>
    <trip id="veh199" type="veh_passenger" depart="112.38" departLane="best" from="4244823#2" to="156155836#1"/>
    <trip id="veh200" type="veh_passenger" depart="112.94" departLane="best" from="496207560" to="4356148"/>
    <trip id="veh201" type="veh_passenger" depart="113.51" departLane="best" from="4253953#0" to="-582952346#0"/>
    <trip id="veh202" type="veh_passenger" depart="114.07" departLane="best" from="-49798450" to="-156097875#3"/>
    <trip id="veh205" type="veh_passenger" depart="115.77" departLane="best" from="211557609#7" to="424202400"/>
    <trip id="veh206" type="veh_passenger" depart="116.33" departLane="best" from="-49781566#0" to="4255475"/>
    <trip id="veh207" type="veh_passenger" depart="116.90" departLane="best" from="25803174#17" to="-651508943#0"/>
    <trip id="veh208" type="veh_passenger" depart="117.46" departLane="best" from="4253512#0" to="-135694809#3"/>
    <trip id="veh209" type="veh_passenger" depart="118.03" departLane="best" from="4356098#2" to="4371832#4"/>
    <trip id="veh210" type="veh_passenger" depart="118.59" departLane="best" from="-4075104" to="2199185"/>
    <trip id="veh211" type="veh_passenger" depart="119.16" departLane="best" from="-4373939#0" to="731207297#0"/>
    <trip id="veh212" type="veh_passenger" depart="119.72" departLane="best" from="2876891#1" to="-225681238#4"/>
    <trip id="veh214" type="veh_passenger" depart="120.85" departLane="best" from="236942867#0" to="47007863#0"/>
    <trip id="veh215" type="veh_passenger" depart="121.41" departLane="best" from="4253804" to="816050588"/>
    <trip id="veh216" type="veh_passenger" depart="121.98" departLane="best" from="401189740#1" to="694839518#0"/>
    <trip id="veh217" type="veh_passenger" depart="122.54" departLane="best" from="59850729#1" to="4082566#6"/>
    <trip id="veh218" type="veh_passenger" depart="123.11" departLane="best" from="4256991#0" to="26815500"/>
    <trip id="veh219" type="veh_passenger" depart="123.67" departLane="best" from="49932204#0" to="318234580"/>
    <trip id="veh220" type="veh_passenger" depart="124.24" departLane="best" from="609004178" to="4288961#0"/>
    <trip id="veh221" type="veh_passenger" depart="124.80" departLane="best" from="251325040#5" to="-694839518#0"/>
    <trip id="veh222" type="veh_passenger" depart="125.37" departLane="best" from="-669856890#0" to="4253266#3"/>
    <trip id="veh223" type="veh_passenger" depart="125.93" departLane="best" from="436938220#12" to="2953567#0"/>
    <trip id="veh225" type="veh_passenger" depart="127.06" departLane="best" from="-30279582#3" to="121992541#2"/>
    <trip id="veh226" type="veh_passenger" depart="127.63" departLane="best" from="-84698718#5" to="154029169#0"/>
    <trip id="veh227" type="veh_passenger" depart="128.19" departLane="best" from="306452416#0" to="-4253810"/>
    <trip id="veh228" type="veh_passenger" depart="128.76" departLane="best" from="-619867272#5" to="4255407#1"/>
    <trip id="veh229" type="veh_passenger" depart="129.32" departLane="best" from="4256397#0" to="-25803174#2"/>
    <trip id="veh230" type="veh_passenger" depart="129.88" departLane="best" from="211479865#1" to="3097584#2"/>
    <trip id="veh231" type="veh_passenger" depart="130.45" departLane="best" from="211560909#2" to="-513773775#3"/>
    <trip id="veh232" type="veh_passenger" depart="131.01" departLane="best" from="2190803#0" to="627472867"/>
    <trip id="veh233" type="veh_passenger" depart="131.58" departLane="best" from="38748498#9" to="4255411#0"/>
    <trip id="veh234" type="veh_passenger" depart="132.14" departLane="best" from="537854312#1" to="4370890#2"/>
    <trip id="veh235" type="veh_passenger" depart="132.71" departLane="best" from="200596450#7" to="-135694809#5"/>
    <trip id="veh236" type="veh_passenger" depart="133.27" departLane="best" from="17929793#0" to="4358454#0"/>
    <trip id="veh237" type="veh_passenger" depart="133.84" departLane="best" from="532636972#0" to="72140279#0"/>
    <trip id="veh238" type="veh_passenger" depart="134.40" departLane="best" from="217214208" to="4340567#1"/>
    <trip id="veh239" type="veh_passenger" depart="134.97" departLane="best" departSpeed="max" from="31030#0" to="4068454#2"/>
    <trip id="veh240" type="veh_passenger" depart="135.53" departLane="best" from="-570440723" to="-563014826#0"/>
    <trip id="veh241" type="veh_passenger" depart="136.10" departLane="best" from="232726283#1" to="-158540399#1"/>
    <trip id="veh242" type="veh_passenger" depart="136.66" departLane="best" from="157547564#2" to="4254981#0"/>
    <trip id="veh243" type="veh_passenger" depart="137.23" departLane="best" from="209691454#2" to="-4259244"/>
    <trip id="veh244" type="veh_passenger" depart="137.79" departLane="best" from="240343183#3" to="-4253451#1"/>
    <trip id="veh245" type="veh_passenger" depart="138.36" departLane="best" departSpeed="max" from="41588157#0" to="-157547564#2"/>
    <trip id="veh247" type="veh_passenger" depart="139.49" departLane="best" from="-157547569#0" to="4253397#1"/>
    <trip id="veh248" type="veh_passenger" depart="140.05" departLane="best" from="-4253801" to="237972281"/>
    <trip id="veh249" type="veh_passenger" depart="140.61" departLane="best" from="-22760595#2" to="200596105#1"/>
    <trip id="veh250" type="veh_passenger" depart="141.18" departLane="best" from="-544787766#3" to="155450993"/>
    <trip id="veh251" type="veh_passenger" depart="141.74" departLane="best" from="4364707#4" to="200596105#1"/>
    <trip id="veh252" type="veh_passenger" depart="142.31" departLane="best" from="43573213#2" to="49932206"/>
    <trip id="veh253" type="veh_passenger" depart="142.87" departLane="best" from="-676541201#1" to="-306452416#4"/>
    <trip id="veh254" type="veh_passenger" depart="143.44" departLane="best" from="-154029169#6" to="3076785#6"/>
    <trip id="veh255" type="veh_passenger" depart="144.00" departLane="best" from="99951410#1" to="170470267#3"/>
    <trip id="veh256" type="veh_passenger" depart="144.57" departLane="best" from="4253444#3" to="438310844"/>
    <trip id="veh257" type="veh_passenger" depart="145.13" departLane="best" from="4253451#3" to="4358461#2"/>
    <trip id="veh258" type="veh_passenger" depart="145.70" departLane="best" from="694565504#0" to="-49797408#4"/>
    <trip id="veh259" type="veh_passenger" depart="146.26" departLane="best" from="-154116824" to="-4255807#0"/>
    <trip id="veh260" type="veh_passenger" depart="146.83" departLane="best" from="34437379#0" to="-56062189#0"/>
    <trip id="veh261" type="veh_passenger" depart="147.39" departLane="best" from="4255805#1" to="4370943#1"/>
    <trip id="veh262" type="veh_passenger" depart="147.96" departLane="best" from="-42786632#0" to="4074309#1"/>
    <trip id="veh263" type="veh_passenger" depart="148.52" departLane="best" from="4340567#0" to="-415673757#1"/>
    <trip id="veh264" type="veh_passenger" depart="149.09" departLane="best" from="497441317#2" to="741348615#3"/>
    <trip id="veh266" type="veh_passenger" depart="150.21" departLane="best" from="148890688#1" to="4254105"/>
    <trip id="veh267" type="veh_passenger" depart="150.78" departLane="best" from="73058382#0" to="208169962#0"/>
    <trip id="veh268" type="veh_passenger" depart="151.34" departLane="best" from="4256758#4" to="-294010666#2"/>
    <trip id="veh269" type="veh_passenger" depart="151.91" departLane="best" from="4255372#3" to="423007010#1"/>
    <trip id="veh273" type="veh_passenger" depart="154.17" departLane="best" from="437881811#1" to="166364279#5"/>
    <trip id="veh274" type="veh_passenger" depart="154.73" departLane="best" departSpeed="max" from="22751856" to="196122558#2"/>
    <trip id="veh275" type="veh_passenger" depart="155.30" departLane="best" from="26789063#1" to="157547574#4"/>
    <trip id="veh276" type="veh_passenger" depart="155.86" departLane="best" from="527084930#1" to="49780463"/>
    <trip id="veh277" type="veh_passenger" depart="156.43" departLane="best" from="-4074211" to="732968087"/>
    <trip id="veh278" type="veh_passenger" depart="156.99" departLane="best" departSpeed="max" from="4252579#0" to="49798450"/>