<?xml version="1.0" encoding="UTF-8"?>

<!-- generated on Fri May 22 16:49:51 2020 by Eclipse SUMO duarouter Version 1.6.0
<configuration xmlns:xsi="http://www.w3.org/2001/XMLSchema-instance" xsi:noNamespaceSchemaLocation="http://sumo.dlr.de/xsd/duarouterConfiguration.xsd">

    <input>
        <net-file value="/usr/local/Cellar/sumo/1.6.0/share/sumo/tools/2020-05-22-16-49-45/osm.net.xml"/>
        <route-files value="/usr/local/Cellar/sumo/1.6.0/share/sumo/tools/2020-05-22-16-49-45/osm.passenger.trips.xml"/>
    </input>

    <output>
        <output-file value="/usr/local/Cellar/sumo/1.6.0/share/sumo/tools/2020-05-22-16-49-45/osm.passenger.trips.xml.tmp"/>
        <write-trips value="true"/>
    </output>

    <time>
        <begin value="0"/>
        <end value="3600.0"/>
    </time>

    <report>
        <no-warnings value="true"/>
        <ignore-errors value="true"/>
        <no-step-log value="true"/>
    </report>

</configuration>
-->

<routes xmlns:xsi="http://www.w3.org/2001/XMLSchema-instance" xsi:noNamespaceSchemaLocation="http://sumo.dlr.de/xsd/routes_file.xsd">
    <vType id="veh_passenger" vClass="passenger"/>
    <trip id="veh0" type="veh_passenger" depart="0.00" departLane="best" departSpeed="max" from="426489269#0" to="380662067#5"/>
    <trip id="veh1" type="veh_passenger" depart="4.17" departLane="best" from="8648229#0" to="8647783"/>
    <trip id="veh2" type="veh_passenger" depart="8.34" departLane="best" from="8651512#3" to="138827726#1"/>
    <trip id="veh3" type="veh_passenger" depart="12.51" departLane="best" departSpeed="max" from="289631068#0" to="8640516"/>
    <trip id="veh5" type="veh_passenger" depart="20.85" departLane="best" from="8646389#1" to="8642149#2"/>
    <trip id="veh6" type="veh_passenger" depart="25.02" departLane="best" departSpeed="max" from="289631068#0" to="8645303"/>
    <trip id="veh9" type="veh_passenger" depart="37.53" departLane="best" from="89641249#0" to="591677195#0"/>
    <trip id="veh10" type="veh_passenger" depart="41.70" departLane="best" from="-8647432#3" to="183524213#1"/>
    <trip id="veh11" type="veh_passenger" depart="45.88" departLane="best" departSpeed="max" from="8650950" to="8646506#1"/>
    <trip id="veh13" type="veh_passenger" depart="54.22" departLane="best" from="591236042#5" to="8643830#0"/>
    <trip id="veh14" type="veh_passenger" depart="58.39" departLane="best" from="8651355#1" to="8645216#4"/>
    <trip id="veh15" type="veh_passenger" depart="62.56" departLane="best" from="8647038#1" to="-8646506#1"/>
    <trip id="veh16" type="veh_passenger" depart="66.73" departLane="best" from="289631068#2" to="591136306#2"/>
    <trip id="veh17" type="veh_passenger" depart="70.90" departLane="best" departSpeed="max" from="-8646816" to="380662072"/>
    <trip id="veh18" type="veh_passenger" depart="75.07" departLane="best" from="-8647872#0" to="579642751#1"/>
    <trip id="veh19" type="veh_passenger" depart="79.24" departLane="best" from="8645216#5" to="630958765"/>
    <trip id="veh20" type="veh_passenger" depart="83.41" departLane="best" departSpeed="max" from="591236042#0" to="345315864#1"/>
    <trip id="veh21" type="veh_passenger" depart="87.58" departLane="best" from="380662072" to="8866322#1"/>
    <trip id="veh22" type="veh_passenger" depart="91.75" departLane="best" from="138827726#3" to="8648663#0"/>
    <trip id="veh23" type="veh_passenger" depart="95.92" departLane="best" from="138827726#1" to="63104564#0"/>
    <trip id="veh24" type="veh_passenger" depart="100.09" departLane="best" from="89641252#2" to="8646690#1"/>
    <trip id="veh26" type="veh_passenger" depart="108.43" departLane="best" from="579642751#1" to="579642751#1"/>
    <trip id="veh27" type="veh_passenger" depart="112.60" departLane="best" from="255667897" to="8866326"/>
    <trip id="veh28" type="veh_passenger" depart="116.77" departLane="best" from="8651512#0" to="591235979#3"/>
    <trip id="veh29" type="veh_passenger" depart="120.94" departLane="best" departSpeed="max" from="8646506#0" to="63104564#4"/>
    <trip id="veh30" type="veh_passenger" depart="125.11" departLane="best" from="380662070#3" to="426491165"/>
    <trip id="veh33" type="veh_passenger" depart="137.63" departLane="best" from="-8647432#1" to="-8646506#2"/>
    <trip id="veh35" type="veh_passenger" depart="145.97" departLane="best" from="-8643915#2" to="63104564#1"/>
    <trip id="veh36" type="veh_passenger" depart="150.14" departLane="best" from="89691955#2" to="8641166#2"/>
    <trip id="veh38" type="veh_passenger" depart="158.48" departLane="best" departSpeed="max" from="8646607#0" to="8641166#4"/>
    <trip id="veh39" type="veh_passenger" depart="162.65" departLane="best" from="380662072" to="8646816"/>
    <trip id="veh46" type="veh_passenger" depart="191.84" departLane="best" from="-103680391" to="591677195#0"/>
    <trip id="veh47" type="veh_passenger" depart="196.01" departLane="best" departSpeed="max" from="-8638109" to="8652204#1"/>
    <trip id="veh48" type="veh_passenger" depart="200.18" departLane="best" from="8651512#0" to="8650900#0"/>
    <trip id="veh50" type="veh_passenger" depart="208.52" departLane="best" from="8651512#0" to="8866326"/>
    <trip id="veh51" type="veh_passenger" depart="212.69" departLane="best" departSpeed="max" from="-8647156" to="8639562#0"/>
    <trip id="veh52" type="veh_passenger" depart="216.86" departLane="best" departSpeed="max" from="-8645774#1" to="8649719#1"/>
    <trip id="veh53" type="veh_passenger" depart="221.03" departLane="best" from="8648747#1" to="242544492#0"/>
    <trip id="veh54" type="veh_passenger" depart="225.20" departLane="best" departSpeed="max" from="806281874#0" to="8643830#0"/>
    <trip id="veh55" type="veh_passenger" depart="229.38" departLane="best" from="380662070#3" to="8651498#1"/>
    <trip id="veh56" type="veh_passenger" depart="233.55" departLane="best" departSpeed="max" from="657718433#0" to="380662067#0"/>
    <trip id="veh57" type="veh_passenger" depart="237.72" departLane="best" from="8641166#2" to="8648663#0"/>
    <trip id="veh58" type="veh_passenger" depart="241.89" departLane="best" departSpeed="max" from="242652626#0" to="591235979#2"/>
    <trip id="veh60" type="veh_passenger" depart="250.23" departLane="best" departSpeed="max" from="-8651358" to="380662070#0"/>
    <trip id="veh61" type="veh_passenger" depart="254.40" departLane="best" from="591217296#1" to="8645303"/>
    <trip id="veh62" type="veh_passenger" depart="258.57" departLane="best" from="289631068#3" to="380662067#3"/>
    <trip id="veh63" type="veh_passenger" depart="262.74" departLane="best" from="-8646506#0" to="8646607#4"/>
    <trip id="veh64" type="veh_passenger" depart="266.91" departLane="best" from="289631068#2" to="8651512#7"/>
    <trip id="veh65" type="veh_passenger" depart="271.08" departLane="best" from="8651355#1" to="-8650900#1"/>
    <trip id="veh66" type="veh_passenger" depart="275.25" departLane="best" from="333071936#0" to="8647432#1"/>
    <trip id="veh67" type="veh_passenger" depart="279.42" departLane="best" departSpeed="max" from="289631068#0" to="242544492#0"/>
    <trip id="veh68" type="veh_passenger" depart="283.59" departLane="best" from="8866322#1" to="8645216#2"/>
    <trip id="veh69" type="veh_passenger" depart="287.76" departLane="best" departSpeed="max" from="806281874#0" to="8650197#0"/>
    <trip id="veh70" type="veh_passenger" depart="291.93" departLane="best" departSpeed="max" from="8650088" to="289651309"/>
    <trip id="veh72" type="veh_passenger" depart="300.27" departLane="best" departSpeed="max" from="657718433#0" to="8638109"/>
    <trip id="veh73" type="veh_passenger" depart="304.44" departLane="best" from="8647872#1" to="8647432#3"/>
    <trip id="veh74" type="veh_passenger" depart="308.61" departLane="best" from="89641252#0" to="183524213#1"/>
    <trip id="veh75" type="veh_passenger" depart="312.78" departLane="best" from="63104587#0" to="591677195#0"/>
    <trip id="veh76" type="veh_passenger" depart="316.95" departLane="best" from="8651355#1" to="426491165"/>
    <trip id="veh77" type="veh_passenger" depart="321.13" departLane="best" from="242544970#1" to="8636684"/>
    <trip id="veh78" type="veh_passenger" depart="325.30" departLane="best" departSpeed="max" from="657718433#0" to="579642751#1"/>
    <trip id="veh81" type="veh_passenger" depart="337.81" departLane="best" from="89641249#4" to="8652204#1"/>
    <trip id="veh82" type="veh_passenger" depart="341.98" departLane="best" departSpeed="max" from="8650950" to="289638711#2"/>
    <trip id="veh83" type="veh_passenger" depart="346.15" departLane="best" from="8638252#1" to="380662067#1"/>
    <trip id="veh85" type="veh_passenger" depart="354.49" departLane="best" from="591236042#5" to="89641252#0"/>
    <trip id="veh86" type="veh_passenger" depart="358.66" departLane="best" from="380662070#3" to="8650197#0"/>
    <trip id="veh88" type="veh_passenger" depart="367.00" departLane="best" departSpeed="max" from="138827717" to="591217296#0"/>
    <trip id="veh89" type="veh_passenger" depart="371.17" departLane="best" from="89641249#4" to="8645216#5"/>
    <trip id="veh91" type="veh_passenger" depart="379.51" departLane="best" from="8638369#0" to="8651355#2"/>
    <trip id="veh92" type="veh_passenger" depart="383.68" departLane="best" departSpeed="max" from="138827717" to="89641249#1"/>
    <trip id="veh94" type="veh_passenger" depart="392.02" departLane="best" from="8644223#0" to="8647783"/>
    <trip id="veh96" type="veh_passenger" depart="400.36" departLane="best" from="8651512#2" to="426491165"/>
    <trip id="veh97" type="veh_passenger" depart="404.53" departLane="best" from="8644223#0" to="8646564"/>
    <trip id="veh98" type="veh_passenger" depart="408.70" departLane="best" from="8640064" to="8866322#0"/>
    <trip id="veh99" type="veh_passenger" depart="412.88" departLane="best" departSpeed="max" from="242652626#0" to="8648270"/>
    <trip id="veh100" type="veh_passenger" depart="417.05" departLane="best" from="333071936#0" to="63104564#4"/>
    <trip id="veh101" type="veh_passenger" depart="421.22" departLane="best" from="-8646506#1" to="8637722#1"/>
    <trip id="veh102" type="veh_passenger" depart="425.39" departLane="best" from="-8646506#2" to="380662067#1"/>
    <trip id="veh104" type="veh_passenger" depart="433.73" departLane="best" from="8650602#1" to="8647891#0"/>
    <trip id="veh105" type="veh_passenger" depart="437.90" departLane="best" departSpeed="max" from="8644437#0" to="89641252#2"/>
    <trip id="veh106" type="veh_passenger" depart="442.07" departLane="best" departSpeed="max" from="8646506#0" to="-380662067#5"/>
    <trip id="veh108" type="veh_passenger" depart="450.41" departLane="best" departSpeed="max" from="138827717" to="242536052#2"/>
    <trip id="veh109" type="veh_passenger" depart="454.58" departLane="best" departSpeed="max" from="-8648270" to="8643830#1"/>
    <trip id="veh110" type="veh_passenger" depart="458.75" departLane="best" departSpeed="max" from="426489269#0" to="8646506#2"/>
    <trip id="veh111" type="veh_passenger" depart="462.92" departLane="best" from="8647432#1" to="333071936#0"/>
    <trip id="veh112" type="veh_passenger" depart="467.09" departLane="best" from="8645216#5" to="555541342#0"/>
    <trip id="veh114" type="veh_passenger" depart="475.43" departLane="best" departSpeed="max" from="8650950" to="138827726#3"/>
    <trip id="veh115" type="veh_passenger" depart="479.60" departLane="best" departSpeed="max" from="657718433#0" to="579642751#1"/>
    <trip id="veh116" type="veh_passenger" depart="483.77" departLane="best" from="-380662067#0" to="8649840#1"/>
    <trip id="veh118" type="veh_passenger" depart="492.11" departLane="best" from="8648229#2" to="8643830#0"/>
    <trip id="veh119" type="veh_passenger" depart="496.28" departLane="best" departSpeed="max" from="657718433#0" to="-426491165"/>
    <trip id="veh121" type="veh_passenger" depart="504.63" departLane="best" from="8651512#6" to="8642149#2"/>
    <trip id="veh122" type="veh_passenger" depart="508.80" departLane="best" from="8650602#2" to="8645303"/>
    <trip id="veh123" type="veh_passenger" depart="512.97" departLane="best" departSpeed="max" from="138827717" to="242544492#0"/>
    <trip id="veh126" type="veh_passenger" depart="525.48" departLane="best" from="8651512#4" to="345315864#1"/>
    <trip id="veh127" type="veh_passenger" depart="529.65" departLane="best" from="380662067#1" to="183524213#1"/>
    <trip id="veh128" type="veh_passenger" depart="533.82" departLane="best" from="8649126#2" to="8651512#2"/>
    <trip id="veh130" type="veh_passenger" depart="542.16" departLane="best" departSpeed="max" from="138827717" to="8652204#1"/>
    <trip id="veh131" type="veh_passenger" depart="546.33" departLane="best" from="8651355#2" to="89641251#0"/>
    <trip id="veh133" type="veh_passenger" depart="554.67" departLane="best" from="-8639923#1" to="8648747#1"/>
    <trip id="veh134" type="veh_passenger" depart="558.84" departLane="best" from="591136306#2" to="8652204#1"/>
    <trip id="veh138" type="veh_passenger" depart="575.52" departLane="best" departSpeed="max" from="289631068#0" to="8650349"/>
    <trip id="veh139" type="veh_passenger" depart="579.69" departLane="best" from="801839131#0" to="591235979#0"/>
    <trip id="veh140" type="veh_passenger" depart="583.86" departLane="best" departSpeed="max" from="8650048#0" to="380662070#1"/>
    <trip id="veh142" type="veh_passenger" depart="592.20" departLane="best" from="89641249#3" to="591136306#0"/>
    <trip id="veh143" type="veh_passenger" depart="596.38" departLane="best" from="8645774#1" to="63104564#4"/>
    <trip id="veh144" type="veh_passenger" depart="600.55" departLane="best" from="89641251#3" to="8641166#4"/>
    <trip id="veh145" type="veh_passenger" depart="604.72" departLane="best" from="8866323" to="242536052#2"/>
    <trip id="veh147" type="veh_passenger" depart="613.06" departLane="best" from="89641249#1" to="555541342#1"/>
    <trip id="veh148" type="veh_passenger" depart="617.23" departLane="best" from="8647872#1" to="591235979#3"/>
    <trip id="veh149" type="veh_passenger" depart="621.40" departLane="best" departSpeed="max" from="8644437#0" to="8640571#1"/>
    <trip id="veh150" type="veh_passenger" depart="625.57" departLane="best" from="591677210" to="8645216#4"/>
    <trip id="veh151" type="veh_passenger" depart="629.74" departLane="best" from="380662067#3" to="8648229#1"/>
    <trip id="veh152" type="veh_passenger" depart="633.91" departLane="best" from="8641166#2" to="8648507#0"/>
    <trip id="veh153" type="veh_passenger" depart="638.08" departLane="best" from="8648229#2" to="8647432#2"/>
    <trip id="veh154" type="veh_passenger" depart="642.25" departLane="best" departSpeed="max" from="591236042#0" to="-8650900#1"/>
    <trip id="veh155" type="veh_passenger" depart="646.42" departLane="best" departSpeed="max" from="8646607#0" to="591677195#0"/>
    <trip id="veh156" type="veh_passenger" depart="650.59" departLane="best" from="555541342#1" to="8651355#1"/>
    <trip id="veh157" type="veh_passenger" depart="654.76" departLane="best" from="8647432#2" to="591235976#0"/>
    <trip id="veh159" type="veh_passenger" depart="663.10" departLane="best" from="63104587#0" to="591217296#0"/>
    <trip id="veh160" type="veh_passenger" depart="667.27" departLane="best" from="103680390" to="671208885"/>
    <trip id="veh161" type="veh_passenger" depart="671.44" departLane="best" from="8866323" to="8647783"/>
    <trip id="veh162" type="veh_passenger" depart="675.61" departLane="best" from="8651512#6" to="8646564"/>
    <trip id="veh164" type="veh_passenger" depart="683.95" departLane="best" from="-103680391" to="591136306#1"/>
    <trip id="veh165" type="veh_passenger" depart="688.13" departLane="best" departSpeed="max" from="8646506#0" to="8638109"/>
    <trip id="veh167" type="veh_passenger" depart="696.47" departLane="best" departSpeed="max" from="806281874#0" to="8651512#6"/>
    <trip id="veh168" type="veh_passenger" depart="700.64" departLane="best" departSpeed="max" from="-8647156" to="8640819#0"/>
    <trip id="veh169" type="veh_passenger" depart="704.81" departLane="best" from="8645216#4" to="591677195#0"/>
    <trip id="veh171" type="veh_passenger" depart="713.15" departLane="best" departSpeed="max" from="8646607#0" to="380662070#0"/>
    <trip id="veh172" type="veh_passenger" depart="717.32" departLane="best" departSpeed="max" from="242652626#0" to="-8639923#6"/>
    <trip id="veh174" type="veh_passenger" depart="725.66" departLane="best" departSpeed="max" from="8650950" to="-8866322#1"/>
    <trip id="veh175" type="veh_passenger" depart="729.83" departLane="best" from="63104590#4" to="8646607#4"/>
    <trip id="veh176" type="veh_passenger" depart="734.00" departLane="best" departSpeed="max" from="242652626#0" to="8647891#0"/>
    <trip id="veh178" type="veh_passenger" depart="742.34" departLane="best" departSpeed="max" from="8646506#0" to="-380662067#2"/>
    <trip id="veh179" type="veh_passenger" depart="746.51" departLane="best" from="8648507#0" to="8649840#1"/>
    <trip id="veh180" type="veh_passenger" depart="750.68" departLane="best" from="8639923#6" to="-8647432#0"/>
    <trip id="veh181" type="veh_passenger" depart="754.85" departLane="best" from="380662067#1" to="8651355#1"/>
    <trip id="veh182" type="veh_passenger" depart="759.02" departLane="best" from="801839131#0" to="8650197#0"/>
    <trip id="veh183" type="veh_passenger" depart="763.19" departLane="best" departSpeed="max" from="8646607#0" to="89641252#2"/>
    <trip id="veh184" type="veh_passenger" depart="767.36" departLane="best" from="8644223#0" to="89638961#0"/>
    <trip id="veh185" type="veh_passenger" depart="771.53" departLane="best" from="8651512#2" to="8646541"/>
    <trip id="veh186" type="veh_passenger" depart="775.70" departLane="best" from="8651512#4" to="8649126#0"/>
    <trip id="veh187" type="veh_passenger" depart="779.88" departLane="best" departSpeed="max" from="806281874#0" to="485292828#1"/>
    <trip id="veh188" type="veh_passenger" depart="784.05" departLane="best" from="380662067#0" to="8646690#1"/>
    <trip id="veh189" type="veh_passenger" depart="788.22" departLane="best" from="8645216#2" to="579642751#1"/>
    <trip id="veh191" type="veh_passenger" depart="796.56" departLane="best" from="8641166#2" to="242544492#0"/>
    <trip id="veh192" type="veh_passenger" depart="800.73" departLane="best" from="289631068#3" to="8647891#0"/>
    <trip id="veh193" type="veh_passenger" depart="804.90" departLane="best" from="8647158#0" to="-8648268"/>
    <trip id="veh194" type="veh_passenger" depart="809.07" departLane="best" from="63104590#1" to="8642149#2"/>
    <trip id="veh195" type="veh_passenger" depart="813.24" departLane="best" from="8643830#2" to="8647891#0"/>
    <trip id="veh196" type="veh_passenger" depart="817.41" departLane="best" from="8651355#0" to="8649840#1"/>
    <trip id="veh197" type="veh_passenger" depart="821.58" departLane="best" from="591677201" to="-380662067#2"/>
    <trip id="veh198" type="veh_passenger" depart="825.75" departLane="best" from="8651324" to="89638961#2"/>
    <trip id="veh199" type="veh_passenger" depart="829.92" departLane="best" departSpeed="max" from="657718433#0" to="8649126#2"/>
    <trip id="veh200" type="veh_passenger" depart="834.09" departLane="best" from="8641166#4" to="8646506#1"/>
    <trip id="veh201" type="veh_passenger" depart="838.26" departLane="best" departSpeed="max" from="289631068#0" to="380662067#3"/>
    <trip id="veh202" type="veh_passenger" depart="842.43" departLane="best" from="591217296#1" to="8647783"/>
    <trip id="veh203" type="veh_passenger" depart="846.60" departLane="best" from="63104587#1" to="289638711#2"/>
    <trip id="veh204" type="veh_passenger" depart="850.77" departLane="best" departSpeed="max" from="806281874#0" to="242544492#0"/>
    <trip id="veh206" type="veh_passenger" depart="859.11" departLane="best" from="-8639923#3" to="8646816"/>
    <trip id="veh207" type="veh_passenger" depart="863.28" departLane="best" departSpeed="max" from="138827717" to="8638014#1"/>
    <trip id="veh208" type="veh_passenger" depart="867.45" departLane="best" departSpeed="max" from="289631068#0" to="591677195#0"/>
    <trip id="veh210" type="veh_passenger" depart="875.80" departLane="best" from="380662067#2" to="138827726#0"/>
    <trip id="veh211" type="veh_passenger" depart="879.97" departLane="best" departSpeed="max" from="-8638109" to="8642149#1"/>
    <trip id="veh212" type="veh_passenger" depart="884.14" departLane="best" from="89691955#3" to="630958765"/>
    <trip id="veh213" type="veh_passenger" depart="888.31" departLane="best" from="8646389#2" to="8650197#0"/>
    <trip id="veh214" type="veh_passenger" depart="892.48" departLane="best" departSpeed="max" from="8646506#0" to="8649177"/>
    <trip id="veh218" type="veh_passenger" depart="909.16" departLane="best" from="8646690#0" to="8649840#1"/>
    <trip id="veh219" type="veh_passenger" depart="913.33" departLane="best" departSpeed="max" from="8648268" to="242536052#0"/>
    <trip id="veh221" type="veh_passenger" depart="921.67" departLane="best" departSpeed="max" from="-8648270" to="-8639923#7"/>
    <trip id="veh223" type="veh_passenger" depart="930.01" departLane="best" from="89641249#0" to="63104564#4"/>
    <trip id="veh224" type="veh_passenger" depart="934.18" departLane="best" from="8647432#0" to="103680390"/>
    <trip id="veh225" type="veh_passenger" depart="938.35" departLane="best" from="-8647872#1" to="8649840#1"/>
    <trip id="veh226" type="veh_passenger" depart="942.52" departLane="best" departSpeed="max" from="-8651358" to="89641252#0"/>
    <trip id="veh227" type="veh_passenger" depart="946.69" departLane="best" from="8649126#3" to="627355753"/>
    <trip id="veh228" type="veh_passenger" depart="950.86" departLane="best" departSpeed="max" from="657718433#0" to="630958765"/>
    <trip id="veh229" type="veh_passenger" depart="955.03" departLane="best" from="8638403" to="591677201"/>
    <trip id="veh230" type="veh_passenger" depart="959.20" departLane="best" departSpeed="max" from="8650950" to="8650435"/>
    <trip id="veh231" type="veh_passenger" depart="963.38" departLane="best" from="-8647872#3" to="89641249#1"/>
    <trip id="veh232" type="veh_passenger" depart="967.55" departLane="best" from="8645216#5" to="8650602#4"/>
    <trip id="veh233" type="veh_passenger" depart="971.72" departLane="best" from="8647158#0" to="801839131#0"/>
    <trip id="veh234" type="veh_passenger" depart="975.89" departLane="best" from="8647872#3" to="89641249#3"/>
    <trip id="veh235" type="veh_passenger" depart="980.06" departLane="best" from="8641166#2" to="8638369#1"/>
    <trip id="veh236" type="veh_passenger" depart="984.23" departLane="best" from="671208885" to="8648663#1"/>
    <trip id="veh237" type="veh_passenger" depart="988.40" departLane="best" from="8650435" to="138827726#1"/>
    <trip id="veh239" type="veh_passenger" depart="996.74" departLane="best" from="801839131#1" to="8646541"/>
    <trip id="veh240" type="veh_passenger" depart="1000.91" departLane="best" from="591236042#5" to="-8640819#0"/>
    <trip id="veh242" type="veh_passenger" depart="1009.25" departLane="best" departSpeed="max" from="289631068#0" to="8650197#0"/>
    <trip id="veh243" type="veh_passenger" depart="1013.42" departLane="best" from="591235976#0" to="8651512#1"/>
    <trip id="veh244" type="veh_passenger" depart="1017.59" departLane="best" from="8646690#1" to="579642751#1"/>
    <trip id="veh245" type="veh_passenger" depart="1021.76" departLane="best" from="-426491165" to="89637355"/>
    <trip id="veh246" type="veh_passenger" depart="1025.93" departLane="best" departSpeed="max" from="-8647156" to="8648507#0"/>
    <trip id="veh250" type="veh_passenger" depart="1042.61" departLane="best" from="8643830#1" to="8638252#1"/>
    <trip id="veh251" type="veh_passenger" depart="1046.78" departLane="best" from="8640819#0" to="747090064#0"/>
    <trip id="veh252" type="veh_passenger" depart="1050.95" departLane="best" departSpeed="max" from="8648268" to="591677195#0"/>
    <trip id="veh253" type="veh_passenger" depart="1055.13" departLane="best" from="8647038#0" to="579642751#1"/>
    <trip id="veh254" type="veh_passenger" depart="1059.30" departLane="best" from="380662067#2" to="242544492#0"/>
    <trip id="veh255" type="veh_passenger" depart="1063.47" departLane="best" departSpeed="max" from="242652626#0" to="242536052#5"/>
    <trip id="veh256" type="veh_passenger" depart="1067.64" departLane="best" from="8641166#1" to="8649719#1"/>
    <trip id="veh257" type="veh_passenger" depart="1071.81" departLane="best" from="242536052#4" to="380662067#2"/>
    <trip id="veh258" type="veh_passenger" depart="1075.98" departLane="best" from="8638252#0" to="8648507#2"/>
    <trip id="veh259" type="veh_passenger" depart="1080.15" departLane="best" from="89641251#2" to="8641166#1"/>
    <trip id="veh261" type="veh_passenger" depart="1088.49" departLane="best" departSpeed="max" from="242652626#0" to="380662070#1"/>
    <trip id="veh262" type="veh_passenger" depart="1092.66" departLane="best" from="206541037#1" to="-63104587#1"/>
    <trip id="veh263" type="veh_passenger" depart="1096.83" departLane="best" from="8641166#1" to="579642751#1"/>
    <trip id="veh264" type="veh_passenger" depart="1101.00" departLane="best" from="89641251#0" to="8643830#1"/>
    <trip id="veh265" type="veh_passenger" depart="1105.17" departLane="best" from="8646690#0" to="242544492#0"/>
    <trip id="veh266" type="veh_passenger" depart="1109.34" departLane="best" from="8651355#2" to="8639923#2"/>
    <trip id="veh267" type="veh_passenger" depart="1113.51" departLane="best" from="8651355#3" to="8645216#3"/>
    <trip id="veh268" type="veh_passenger" depart="1117.68" departLane="best" from="242536052#4" to="-8647432#1"/>
    <trip id="veh270" type="veh_passenger" depart="1126.02" departLane="best" from="-8646506#2" to="8646607#3"/>
    <trip id="veh273" type="veh_passenger" depart="1138.53" departLane="best" from="8648747#0" to="8646520#0"/>
    <trip id="veh274" type="veh_passenger" depart="1142.70" departLane="best" departSpeed="max" from="8650048#0" to="380662070#0"/>
    <trip id="veh275" type="veh_passenger" depart="1146.88" departLane="best" from="8640064" to="8636684"/>
    <trip id="veh277" type="veh_passenger" depart="1155.22" departLane="best" from="89641252#2" to="591235979#0"/>
    <trip id="veh278" type="veh_passenger" depart="1159.39" departLane="best" from="8648229#1" to="89637355"/>
    <trip id="veh279" type="veh_passenger" depart="1163.56" departLane="best" from="247748351#1" to="380662067#0"/>
    <trip id="veh281" type="veh_passenger" depart="1171.90" departLane="best" from="-380662067#0" to="8636684"/>
    <trip id="veh282" type="veh_passenger" depart="1176.07" departLane="best" from="8643915#2" to="591136306#2"/>
    <trip id="veh283" type="veh_passenger" depart="1180.24" departLane="best" from="289631068#3" to="8648229#0"/>
    <trip id="veh286" type="veh_passenger" depart="1192.75" departLane="best" from="8646520#0" to="8652368"/>
    <trip id="veh287" type="veh_passenger" depart="1196.92" departLane="best" departSpeed="max" from="657718433#0" to="8642149#2"/>
    <trip id="veh288" type="veh_passenger" depart="1201.09" departLane="best" departSpeed="max" from="8646389#0" to="8651512#7"/>
    <trip id="veh289" type="veh_passenger" depart="1205.26" departLane="best" from="8650333#1" to="-8866322#0"/>
    <trip id="veh290" type="veh_passenger" depart="1209.43" departLane="best" from="138827726#1" to="591235979#1"/>
    <trip id="veh291" type="veh_passenger" depart="1213.60" departLane="best" departSpeed="max" from="8648268" to="8645216#0"/>
    <trip id="veh292" type="veh_passenger" depart="1217.77" departLane="best" from="485292828#1" to="242544492#0"/>
    <trip id="veh295" type="veh_passenger" depart="1230.28" departLane="best" departSpeed="max" from="-8640516" to="747090065"/>
    <trip id="veh296" type="veh_passenger" depart="1234.45" departLane="best" from="591136306#0" to="448441075#0"/>
    <trip id="veh297" type="veh_passenger" depart="1238.63" departLane="best" from="-8647432#1" to="89641249#1"/>
    <trip id="veh298" type="veh_passenger" depart="1242.80" departLane="best" from="8650602#3" to="8645216#3"/>
    <trip id="veh299" type="veh_passenger" depart="1246.97" departLane="best" from="89638961#1" to="89691955#3"/>
    <trip id="veh300" type="veh_passenger" depart="1251.14" departLane="best" departSpeed="max" from="8646607#0" to="579642751#1"/>
    <trip id="veh301" type="veh_passenger" depart="1255.31" departLane="best" departSpeed="max" from="-8640516" to="8649719#1"/>
    <trip id="veh304" type="veh_passenger" depart="1267.82" departLane="best" from="8643830#2" to="8646653"/>
    <trip id="veh305" type="veh_passenger" depart="1271.99" departLane="best" departSpeed="max" from="8646607#0" to="8651355#3"/>
    <trip id="veh306" type="veh_passenger" depart="1276.16" departLane="best" from="591136306#2" to="8647891#0"/>
    <trip id="veh308" type="veh_passenger" depart="1284.50" departLane="best" from="591136306#1" to="89641249#4"/>
    <trip id="veh309" type="veh_passenger" depart="1288.67" departLane="best" from="63104587#1" to="8640707#1"/>
    <trip id="veh310" type="veh_passenger" depart="1292.84" departLane="best" from="89641252#2" to="8647158#0"/>
    <trip id="veh311" type="veh_passenger" depart="1297.01" departLane="best" from="8641166#2" to="63104590#4"/>
    <trip id="veh312" type="veh_passenger" depart="1301.18" departLane="best" from="242544970#0" to="630958765"/>
    <trip id="veh313" type="veh_passenger" depart="1305.35" departLane="best" from="8648507#2" to="8646607#3"/>
    <trip id="veh316" type="veh_passenger" depart="1317.86" departLane="best" departSpeed="max" from="-8651358" to="89641249#4"/>
    <trip id="veh318" type="veh_passenger" depart="1326.20" departLane="best" departSpeed="max" from="138827717" to="8643830#0"/>